.subckt cm_ota_extracted ID VOUT VINN VINP VSS VDD
X0 m1_4268_1400# ID VSS VSS sky130_fd_pr__nfet_01v8 ad=0.0588 pd=0.7 as=0.0588 ps=0.7 w=0.42 l=0.50
X1 m1_4268_1400# ID VSS VSS sky130_fd_pr__nfet_01v8 ad=0.0588 pd=0.7 as=0.0588 ps=0.7 w=0.42 l=0.50
X2 VSS ID m1_4268_1400# VSS sky130_fd_pr__nfet_01v8 ad=0.0588 pd=0.7 as=0.0588 ps=0.7 w=0.42 l=0.50
X3 VSS ID m1_4268_1400# VSS sky130_fd_pr__nfet_01v8 ad=0.111 pd=1.37 as=0.0588 ps=0.7 w=0.42 l=0.50
X4 m1_4268_1400# ID VSS VSS sky130_fd_pr__nfet_01v8 ad=0.0588 pd=0.7 as=0.0588 ps=0.7 w=0.42 l=0.50
X5 m1_4268_1400# ID VSS VSS sky130_fd_pr__nfet_01v8 ad=0.0588 pd=0.7 as=0.0588 ps=0.7 w=0.42 l=0.50
X6 VSS ID m1_4268_1400# VSS sky130_fd_pr__nfet_01v8 ad=0.0588 pd=0.7 as=0.0588 ps=0.7 w=0.42 l=0.50
X7 m1_4268_1400# ID VSS VSS sky130_fd_pr__nfet_01v8 ad=0.0588 pd=0.7 as=0.0588 ps=0.7 w=0.42 l=0.50
X8 VSS ID m1_4268_1400# VSS sky130_fd_pr__nfet_01v8 ad=0.0588 pd=0.7 as=0.0588 ps=0.7 w=0.42 l=0.50
X9 VSS ID m1_4268_1400# VSS sky130_fd_pr__nfet_01v8 ad=0.0588 pd=0.7 as=0.0588 ps=0.7 w=0.42 l=0.50
X10 m1_4268_1400# ID VSS VSS sky130_fd_pr__nfet_01v8 ad=0.0588 pd=0.7 as=0.0588 ps=0.7 w=0.42 l=0.50
X11 m1_4268_1400# ID VSS VSS sky130_fd_pr__nfet_01v8 ad=0.0588 pd=0.7 as=0.0588 ps=0.7 w=0.42 l=0.50
X12 VSS ID m1_4268_1400# VSS sky130_fd_pr__nfet_01v8 ad=0.0588 pd=0.7 as=0.0588 ps=0.7 w=0.42 l=0.50
X13 m1_4268_1400# ID VSS VSS sky130_fd_pr__nfet_01v8 ad=0.0588 pd=0.7 as=0.0588 ps=0.7 w=0.42 l=0.50
X14 VSS ID m1_4268_1400# VSS sky130_fd_pr__nfet_01v8 ad=0.0588 pd=0.7 as=0.0588 ps=0.7 w=0.42 l=0.50
X15 VSS ID m1_4268_1400# VSS sky130_fd_pr__nfet_01v8 ad=0.0588 pd=0.7 as=0.0588 ps=0.7 w=0.42 l=0.50
X16 m1_4268_1400# ID VSS VSS sky130_fd_pr__nfet_01v8 ad=0.0588 pd=0.7 as=0.111 ps=1.37 w=0.42 l=0.50
X17 VSS ID m1_4268_1400# VSS sky130_fd_pr__nfet_01v8 ad=0.0588 pd=0.7 as=0.0588 ps=0.7 w=0.42 l=0.50
X18 m1_4268_1400# ID VSS VSS sky130_fd_pr__nfet_01v8 ad=0.0588 pd=0.7 as=0.0588 ps=0.7 w=0.42 l=0.50
X19 VSS ID m1_4268_1400# VSS sky130_fd_pr__nfet_01v8 ad=0.0588 pd=0.7 as=0.0588 ps=0.7 w=0.42 l=0.50
X20 ID ID VSS VSS sky130_fd_pr__nfet_01v8 ad=0.0588 pd=0.7 as=0.0588 ps=0.7 w=0.42 l=0.50
X21 ID ID VSS VSS sky130_fd_pr__nfet_01v8 ad=0.0588 pd=0.7 as=0.0588 ps=0.7 w=0.42 l=0.50
X22 VSS ID ID VSS sky130_fd_pr__nfet_01v8 ad=0.0588 pd=0.7 as=0.0588 ps=0.7 w=0.42 l=0.50
X23 VSS ID ID VSS sky130_fd_pr__nfet_01v8 ad=0.111 pd=1.37 as=0.0588 ps=0.7 w=0.42 l=0.50
X24 ID ID VSS VSS sky130_fd_pr__nfet_01v8 ad=0.0588 pd=0.7 as=0.0588 ps=0.7 w=0.42 l=0.50
X25 ID ID VSS VSS sky130_fd_pr__nfet_01v8 ad=0.0588 pd=0.7 as=0.0588 ps=0.7 w=0.42 l=0.50
X26 VSS ID ID VSS sky130_fd_pr__nfet_01v8 ad=0.0588 pd=0.7 as=0.0588 ps=0.7 w=0.42 l=0.50
X27 ID ID VSS VSS sky130_fd_pr__nfet_01v8 ad=0.0588 pd=0.7 as=0.0588 ps=0.7 w=0.42 l=0.50
X28 VSS ID ID VSS sky130_fd_pr__nfet_01v8 ad=0.0588 pd=0.7 as=0.0588 ps=0.7 w=0.42 l=0.50
X29 VSS ID ID VSS sky130_fd_pr__nfet_01v8 ad=0.0588 pd=0.7 as=0.0588 ps=0.7 w=0.42 l=0.50
X30 ID ID VSS VSS sky130_fd_pr__nfet_01v8 ad=0.0588 pd=0.7 as=0.0588 ps=0.7 w=0.42 l=0.50
X31 ID ID VSS VSS sky130_fd_pr__nfet_01v8 ad=0.0588 pd=0.7 as=0.0588 ps=0.7 w=0.42 l=0.50
X32 VSS ID ID VSS sky130_fd_pr__nfet_01v8 ad=0.0588 pd=0.7 as=0.0588 ps=0.7 w=0.42 l=0.50
X33 ID ID VSS VSS sky130_fd_pr__nfet_01v8 ad=0.0588 pd=0.7 as=0.0588 ps=0.7 w=0.42 l=0.50
X34 VSS ID ID VSS sky130_fd_pr__nfet_01v8 ad=0.0588 pd=0.7 as=0.0588 ps=0.7 w=0.42 l=0.50
X35 VSS ID ID VSS sky130_fd_pr__nfet_01v8 ad=0.0588 pd=0.7 as=0.0588 ps=0.7 w=0.42 l=0.50
X36 ID ID VSS VSS sky130_fd_pr__nfet_01v8 ad=0.0588 pd=0.7 as=0.111 ps=1.37 w=0.42 l=0.50
X37 VSS ID ID VSS sky130_fd_pr__nfet_01v8 ad=0.0588 pd=0.7 as=0.0588 ps=0.7 w=0.42 l=0.50
X38 ID ID VSS VSS sky130_fd_pr__nfet_01v8 ad=0.0588 pd=0.7 as=0.0588 ps=0.7 w=0.42 l=0.50
X39 VSS ID ID VSS sky130_fd_pr__nfet_01v8 ad=0.0588 pd=0.7 as=0.0588 ps=0.7 w=0.42 l=0.50
X40 m1_1258_1484# VINP m1_4268_1400# VSS sky130_fd_pr__nfet_01v8 ad=0.0588 pd=0.7 as=0.0588 ps=0.7 w=0.42 l=0.50
X41 m1_1258_1484# VINP m1_4268_1400# VSS sky130_fd_pr__nfet_01v8 ad=0.0588 pd=0.7 as=0.0588 ps=0.7 w=0.42 l=0.50
X42 m1_4268_1400# VINP m1_1258_1484# VSS sky130_fd_pr__nfet_01v8 ad=0.0588 pd=0.7 as=0.0588 ps=0.7 w=0.42 l=0.50
X43 m1_1258_1484# VINP m1_4268_1400# VSS sky130_fd_pr__nfet_01v8 ad=0.0588 pd=0.7 as=0.0588 ps=0.7 w=0.42 l=0.50
X44 m1_1258_1484# VINP m1_4268_1400# VSS sky130_fd_pr__nfet_01v8 ad=0.0588 pd=0.7 as=0.111 ps=1.37 w=0.42 l=0.50
X45 m1_4268_1400# VINP m1_1258_1484# VSS sky130_fd_pr__nfet_01v8 ad=0.0588 pd=0.7 as=0.0588 ps=0.7 w=0.42 l=0.50
X46 m1_1258_1484# VINP m1_4268_1400# VSS sky130_fd_pr__nfet_01v8 ad=0.0588 pd=0.7 as=0.0588 ps=0.7 w=0.42 l=0.50
X47 m1_4268_1400# VINP m1_1258_1484# VSS sky130_fd_pr__nfet_01v8 ad=0.0588 pd=0.7 as=0.0588 ps=0.7 w=0.42 l=0.50
X48 m1_4268_1400# VINP m1_1258_1484# VSS sky130_fd_pr__nfet_01v8 ad=0.0588 pd=0.7 as=0.0588 ps=0.7 w=0.42 l=0.50
X49 m1_1258_1484# VINP m1_4268_1400# VSS sky130_fd_pr__nfet_01v8 ad=0.0588 pd=0.7 as=0.0588 ps=0.7 w=0.42 l=0.50
X50 m1_4268_1400# VINP m1_1258_1484# VSS sky130_fd_pr__nfet_01v8 ad=0.0588 pd=0.7 as=0.0588 ps=0.7 w=0.42 l=0.50
X51 m1_1258_1484# VINP m1_4268_1400# VSS sky130_fd_pr__nfet_01v8 ad=0.0588 pd=0.7 as=0.0588 ps=0.7 w=0.42 l=0.50
X52 m1_1258_1484# VINP m1_4268_1400# VSS sky130_fd_pr__nfet_01v8 ad=0.0588 pd=0.7 as=0.0588 ps=0.7 w=0.42 l=0.50
X53 m1_4268_1400# VINP m1_1258_1484# VSS sky130_fd_pr__nfet_01v8 ad=0.0588 pd=0.7 as=0.0588 ps=0.7 w=0.42 l=0.50
X54 m1_4268_1400# VINP m1_1258_1484# VSS sky130_fd_pr__nfet_01v8 ad=0.111 pd=1.37 as=0.0588 ps=0.7 w=0.42 l=0.50
X55 m1_1258_1484# VINP m1_4268_1400# VSS sky130_fd_pr__nfet_01v8 ad=0.0588 pd=0.7 as=0.0588 ps=0.7 w=0.42 l=0.50
X56 m1_4268_1400# VINP m1_1258_1484# VSS sky130_fd_pr__nfet_01v8 ad=0.111 pd=1.37 as=0.0588 ps=0.7 w=0.42 l=0.50
X57 m1_1258_1484# VINP m1_4268_1400# VSS sky130_fd_pr__nfet_01v8 ad=0.0588 pd=0.7 as=0.111 ps=1.37 w=0.42 l=0.50
X58 m1_4268_1400# VINP m1_1258_1484# VSS sky130_fd_pr__nfet_01v8 ad=0.0588 pd=0.7 as=0.0588 ps=0.7 w=0.42 l=0.50
X59 m1_4268_1400# VINP m1_1258_1484# VSS sky130_fd_pr__nfet_01v8 ad=0.0588 pd=0.7 as=0.0588 ps=0.7 w=0.42 l=0.50
X60 VDD m1_1258_1484# m1_1258_1484# VDD sky130_fd_pr__pfet_01v8 ad=0.0588 pd=0.7 as=0.0588 ps=0.7 w=0.42 l=0.50
X61 m1_1258_1484# m1_1258_1484# VDD VDD sky130_fd_pr__pfet_01v8 ad=0.0588 pd=0.7 as=0.0588 ps=0.7 w=0.42 l=0.50
X62 m1_1258_1484# m1_1258_1484# VDD VDD sky130_fd_pr__pfet_01v8 ad=0.0588 pd=0.7 as=0.111 ps=1.37 w=0.42 l=0.50
X63 VDD m1_1258_1484# m1_1258_1484# VDD sky130_fd_pr__pfet_01v8 ad=0.0588 pd=0.7 as=0.0588 ps=0.7 w=0.42 l=0.50
X64 VDD m1_1258_1484# m1_1258_1484# VDD sky130_fd_pr__pfet_01v8 ad=0.111 pd=1.37 as=0.0588 ps=0.7 w=0.42 l=0.50
X65 m1_1258_1484# m1_1258_1484# VDD VDD sky130_fd_pr__pfet_01v8 ad=0.0588 pd=0.7 as=0.0588 ps=0.7 w=0.42 l=0.50
X66 m1_6160_1484# VINN m1_4268_1400# VSS sky130_fd_pr__nfet_01v8 ad=1.18 pd=14 as=3.95 ps=47.4 w=0.42 l=0.50
X67 m1_6160_1484# VINN m1_4268_1400# VSS sky130_fd_pr__nfet_01v8 ad=0 pd=0 as=0 ps=0 w=0.42 l=0.50
X68 m1_4268_1400# VINN m1_6160_1484# VSS sky130_fd_pr__nfet_01v8 ad=0 pd=0 as=0 ps=0 w=0.42 l=0.50
X69 m1_6160_1484# VINN m1_4268_1400# VSS sky130_fd_pr__nfet_01v8 ad=0 pd=0 as=0 ps=0 w=0.42 l=0.50
X70 m1_6160_1484# VINN m1_4268_1400# VSS sky130_fd_pr__nfet_01v8 ad=0 pd=0 as=0 ps=0 w=0.42 l=0.50
X71 m1_4268_1400# VINN m1_6160_1484# VSS sky130_fd_pr__nfet_01v8 ad=0 pd=0 as=0 ps=0 w=0.42 l=0.50
X72 m1_6160_1484# VINN m1_4268_1400# VSS sky130_fd_pr__nfet_01v8 ad=0 pd=0 as=0 ps=0 w=0.42 l=0.50
X73 m1_4268_1400# VINN m1_6160_1484# VSS sky130_fd_pr__nfet_01v8 ad=0 pd=0 as=0 ps=0 w=0.42 l=0.50
X74 m1_4268_1400# VINN m1_6160_1484# VSS sky130_fd_pr__nfet_01v8 ad=0 pd=0 as=0 ps=0 w=0.42 l=0.50
X75 m1_6160_1484# VINN m1_4268_1400# VSS sky130_fd_pr__nfet_01v8 ad=0 pd=0 as=0 ps=0 w=0.42 l=0.50
X76 m1_4268_1400# VINN m1_6160_1484# VSS sky130_fd_pr__nfet_01v8 ad=0 pd=0 as=0 ps=0 w=0.42 l=0.50
X77 m1_6160_1484# VINN m1_4268_1400# VSS sky130_fd_pr__nfet_01v8 ad=0 pd=0 as=0 ps=0 w=0.42 l=0.50
X78 m1_6160_1484# VINN m1_4268_1400# VSS sky130_fd_pr__nfet_01v8 ad=0 pd=0 as=0 ps=0 w=0.42 l=0.50
X79 m1_4268_1400# VINN m1_6160_1484# VSS sky130_fd_pr__nfet_01v8 ad=0 pd=0 as=0 ps=0 w=0.42 l=0.50
X80 m1_4268_1400# VINN m1_6160_1484# VSS sky130_fd_pr__nfet_01v8 ad=0 pd=0 as=0 ps=0 w=0.42 l=0.50
X81 m1_6160_1484# VINN m1_4268_1400# VSS sky130_fd_pr__nfet_01v8 ad=0 pd=0 as=0 ps=0 w=0.42 l=0.50
X82 m1_4268_1400# VINN m1_6160_1484# VSS sky130_fd_pr__nfet_01v8 ad=0 pd=0 as=0 ps=0 w=0.42 l=0.50
X83 m1_6160_1484# VINN m1_4268_1400# VSS sky130_fd_pr__nfet_01v8 ad=0 pd=0 as=0 ps=0 w=0.42 l=0.50
X84 m1_4268_1400# VINN m1_6160_1484# VSS sky130_fd_pr__nfet_01v8 ad=0 pd=0 as=0 ps=0 w=0.42 l=0.50
X85 m1_4268_1400# VINN m1_6160_1484# VSS sky130_fd_pr__nfet_01v8 ad=0 pd=0 as=0 ps=0 w=0.42 l=0.50
X86 VDD m1_6160_1484# m1_6160_1484# VDD sky130_fd_pr__pfet_01v8 ad=6.98 pd=83.6 as=0.353 ps=4.2 w=0.42 l=0.50
X87 m1_6160_1484# m1_6160_1484# VDD VDD sky130_fd_pr__pfet_01v8 ad=0 pd=0 as=0 ps=0 w=0.42 l=0.50
X88 m1_6160_1484# m1_6160_1484# VDD VDD sky130_fd_pr__pfet_01v8 ad=0 pd=0 as=0 ps=0 w=0.42 l=0.50
X89 VDD m1_6160_1484# m1_6160_1484# VDD sky130_fd_pr__pfet_01v8 ad=0 pd=0 as=0 ps=0 w=0.42 l=0.50
X90 VDD m1_6160_1484# m1_6160_1484# VDD sky130_fd_pr__pfet_01v8 ad=0 pd=0 as=0 ps=0 w=0.42 l=0.50
X91 m1_6160_1484# m1_6160_1484# VDD VDD sky130_fd_pr__pfet_01v8 ad=0 pd=0 as=0 ps=0 w=0.42 l=0.50
X92 VDD m1_1258_1484# VOUT VDD sky130_fd_pr__pfet_01v8 ad=0.0588 pd=0.7 as=0.0588 ps=0.7 w=0.42 l=0.50
X93 VOUT m1_1258_1484# VDD VDD sky130_fd_pr__pfet_01v8 ad=0.0588 pd=0.7 as=0.0588 ps=0.7 w=0.42 l=0.50
X94 VDD m1_1258_1484# VOUT VDD sky130_fd_pr__pfet_01v8 ad=0.0588 pd=0.7 as=0.0588 ps=0.7 w=0.42 l=0.50
X95 VOUT m1_1258_1484# VDD VDD sky130_fd_pr__pfet_01v8 ad=0.0588 pd=0.7 as=0.111 ps=1.37 w=0.42 l=0.50
X96 VDD m1_1258_1484# VOUT VDD sky130_fd_pr__pfet_01v8 ad=0.0588 pd=0.7 as=0.0588 ps=0.7 w=0.42 l=0.50
X97 VDD m1_1258_1484# VOUT VDD sky130_fd_pr__pfet_01v8 ad=0.0588 pd=0.7 as=0.0588 ps=0.7 w=0.42 l=0.50
X98 VOUT m1_1258_1484# VDD VDD sky130_fd_pr__pfet_01v8 ad=0.0588 pd=0.7 as=0.0588 ps=0.7 w=0.42 l=0.50
X99 VOUT m1_1258_1484# VDD VDD sky130_fd_pr__pfet_01v8 ad=0.0588 pd=0.7 as=0.0588 ps=0.7 w=0.42 l=0.50
X100 VOUT m1_1258_1484# VDD VDD sky130_fd_pr__pfet_01v8 ad=0.0588 pd=0.7 as=0.0588 ps=0.7 w=0.42 l=0.50
X101 VDD m1_1258_1484# VOUT VDD sky130_fd_pr__pfet_01v8 ad=0.0588 pd=0.7 as=0.0588 ps=0.7 w=0.42 l=0.50
X102 VOUT m1_1258_1484# VDD VDD sky130_fd_pr__pfet_01v8 ad=0.0588 pd=0.7 as=0.0588 ps=0.7 w=0.42 l=0.50
X103 VDD m1_1258_1484# VOUT VDD sky130_fd_pr__pfet_01v8 ad=0.0588 pd=0.7 as=0.0588 ps=0.7 w=0.42 l=0.50
X104 VDD m1_1258_1484# VOUT VDD sky130_fd_pr__pfet_01v8 ad=0.0588 pd=0.7 as=0.0588 ps=0.7 w=0.42 l=0.50
X105 VOUT m1_1258_1484# VDD VDD sky130_fd_pr__pfet_01v8 ad=0.0588 pd=0.7 as=0.0588 ps=0.7 w=0.42 l=0.50
X106 VOUT m1_1258_1484# VDD VDD sky130_fd_pr__pfet_01v8 ad=0.0588 pd=0.7 as=0.0588 ps=0.7 w=0.42 l=0.50
X107 VOUT m1_1258_1484# VDD VDD sky130_fd_pr__pfet_01v8 ad=0.0588 pd=0.7 as=0.0588 ps=0.7 w=0.42 l=0.50
X108 VDD m1_1258_1484# VOUT VDD sky130_fd_pr__pfet_01v8 ad=0.0588 pd=0.7 as=0.0588 ps=0.7 w=0.42 l=0.50
X109 VDD m1_1258_1484# VOUT VDD sky130_fd_pr__pfet_01v8 ad=0.0588 pd=0.7 as=0.0588 ps=0.7 w=0.42 l=0.50
X110 VDD m1_1258_1484# VOUT VDD sky130_fd_pr__pfet_01v8 ad=0.0588 pd=0.7 as=0.0588 ps=0.7 w=0.42 l=0.50
X111 VOUT m1_1258_1484# VDD VDD sky130_fd_pr__pfet_01v8 ad=0.0588 pd=0.7 as=0.0588 ps=0.7 w=0.42 l=0.50
X112 VOUT m1_1258_1484# VDD VDD sky130_fd_pr__pfet_01v8 ad=0.0588 pd=0.7 as=0.0588 ps=0.7 w=0.42 l=0.50
X113 VOUT m1_1258_1484# VDD VDD sky130_fd_pr__pfet_01v8 ad=0.0588 pd=0.7 as=0.0588 ps=0.7 w=0.42 l=0.50
X114 VDD m1_1258_1484# VOUT VDD sky130_fd_pr__pfet_01v8 ad=0.0588 pd=0.7 as=0.0588 ps=0.7 w=0.42 l=0.50
X115 VDD m1_1258_1484# VOUT VDD sky130_fd_pr__pfet_01v8 ad=0.0588 pd=0.7 as=0.0588 ps=0.7 w=0.42 l=0.50
X116 VOUT m1_1258_1484# VDD VDD sky130_fd_pr__pfet_01v8 ad=0.0588 pd=0.7 as=0.0588 ps=0.7 w=0.42 l=0.50
X117 VOUT m1_1258_1484# VDD VDD sky130_fd_pr__pfet_01v8 ad=0.0588 pd=0.7 as=0.0588 ps=0.7 w=0.42 l=0.50
X118 VOUT m1_1258_1484# VDD VDD sky130_fd_pr__pfet_01v8 ad=0.0588 pd=0.7 as=0.0588 ps=0.7 w=0.42 l=0.50
X119 VOUT m1_1258_1484# VDD VDD sky130_fd_pr__pfet_01v8 ad=0.0588 pd=0.7 as=0.0588 ps=0.7 w=0.42 l=0.50
X120 VDD m1_1258_1484# VOUT VDD sky130_fd_pr__pfet_01v8 ad=0.0588 pd=0.7 as=0.0588 ps=0.7 w=0.42 l=0.50
X121 VDD m1_1258_1484# VOUT VDD sky130_fd_pr__pfet_01v8 ad=0.0588 pd=0.7 as=0.0588 ps=0.7 w=0.42 l=0.50
X122 VOUT m1_1258_1484# VDD VDD sky130_fd_pr__pfet_01v8 ad=0.0588 pd=0.7 as=0.0588 ps=0.7 w=0.42 l=0.50
X123 VDD m1_1258_1484# VOUT VDD sky130_fd_pr__pfet_01v8 ad=0.111 pd=1.37 as=0.0588 ps=0.7 w=0.42 l=0.50
X124 VDD m1_1258_1484# VOUT VDD sky130_fd_pr__pfet_01v8 ad=0.0588 pd=0.7 as=0.0588 ps=0.7 w=0.42 l=0.50
X125 VDD m1_1258_1484# VOUT VDD sky130_fd_pr__pfet_01v8 ad=0.0588 pd=0.7 as=0.0588 ps=0.7 w=0.42 l=0.50
X126 VDD m1_1258_1484# VOUT VDD sky130_fd_pr__pfet_01v8 ad=0.0588 pd=0.7 as=0.0588 ps=0.7 w=0.42 l=0.50
X127 VDD m1_1258_1484# VOUT VDD sky130_fd_pr__pfet_01v8 ad=0.0588 pd=0.7 as=0.0588 ps=0.7 w=0.42 l=0.50
X128 VOUT m1_1258_1484# VDD VDD sky130_fd_pr__pfet_01v8 ad=0.0588 pd=0.7 as=0.111 ps=1.37 w=0.42 l=0.50
X129 VOUT m1_1258_1484# VDD VDD sky130_fd_pr__pfet_01v8 ad=0.0588 pd=0.7 as=0.0588 ps=0.7 w=0.42 l=0.50
X130 VDD m1_1258_1484# VOUT VDD sky130_fd_pr__pfet_01v8 ad=0.111 pd=1.37 as=0.0588 ps=0.7 w=0.42 l=0.50
X131 VDD m1_1258_1484# VOUT VDD sky130_fd_pr__pfet_01v8 ad=0.0588 pd=0.7 as=0.0588 ps=0.7 w=0.42 l=0.50
X132 VDD m1_1258_1484# VOUT VDD sky130_fd_pr__pfet_01v8 ad=0.0588 pd=0.7 as=0.0588 ps=0.7 w=0.42 l=0.50
X133 VOUT m1_1258_1484# VDD VDD sky130_fd_pr__pfet_01v8 ad=0.0588 pd=0.7 as=0.0588 ps=0.7 w=0.42 l=0.50
X134 VOUT m1_1258_1484# VDD VDD sky130_fd_pr__pfet_01v8 ad=0.0588 pd=0.7 as=0.0588 ps=0.7 w=0.42 l=0.50
X135 VOUT m1_1258_1484# VDD VDD sky130_fd_pr__pfet_01v8 ad=0.0588 pd=0.7 as=0.0588 ps=0.7 w=0.42 l=0.50
X136 VDD m1_1258_1484# VOUT VDD sky130_fd_pr__pfet_01v8 ad=0.0588 pd=0.7 as=0.0588 ps=0.7 w=0.42 l=0.50
X137 VDD m1_1258_1484# VOUT VDD sky130_fd_pr__pfet_01v8 ad=0.0588 pd=0.7 as=0.0588 ps=0.7 w=0.42 l=0.50
X138 VOUT m1_1258_1484# VDD VDD sky130_fd_pr__pfet_01v8 ad=0.0588 pd=0.7 as=0.0588 ps=0.7 w=0.42 l=0.50
X139 VOUT m1_1258_1484# VDD VDD sky130_fd_pr__pfet_01v8 ad=0.0588 pd=0.7 as=0.0588 ps=0.7 w=0.42 l=0.50
X140 VOUT m2_5648_4247# VSS VSS sky130_fd_pr__nfet_01v8 ad=0.0588 pd=0.7 as=0.0588 ps=0.7 w=0.42 l=0.50
X141 VOUT m2_5648_4247# VSS VSS sky130_fd_pr__nfet_01v8 ad=0.0588 pd=0.7 as=0.0588 ps=0.7 w=0.42 l=0.50
X142 VSS m2_5648_4247# VOUT VSS sky130_fd_pr__nfet_01v8 ad=0.0588 pd=0.7 as=0.0588 ps=0.7 w=0.42 l=0.50
X143 VSS m2_5648_4247# VOUT VSS sky130_fd_pr__nfet_01v8 ad=0.0588 pd=0.7 as=0.0588 ps=0.7 w=0.42 l=0.50
X144 VSS m2_5648_4247# VOUT VSS sky130_fd_pr__nfet_01v8 ad=0.0588 pd=0.7 as=0.0588 ps=0.7 w=0.42 l=0.50
X145 VOUT m2_5648_4247# VSS VSS sky130_fd_pr__nfet_01v8 ad=0.0588 pd=0.7 as=0.0588 ps=0.7 w=0.42 l=0.50
X146 VOUT m2_5648_4247# VSS VSS sky130_fd_pr__nfet_01v8 ad=0.0588 pd=0.7 as=0.0588 ps=0.7 w=0.42 l=0.50
X147 VSS m2_5648_4247# VOUT VSS sky130_fd_pr__nfet_01v8 ad=0.0588 pd=0.7 as=0.0588 ps=0.7 w=0.42 l=0.50
X148 VOUT m2_5648_4247# VSS VSS sky130_fd_pr__nfet_01v8 ad=0.0588 pd=0.7 as=0.0588 ps=0.7 w=0.42 l=0.50
X149 VOUT m2_5648_4247# VSS VSS sky130_fd_pr__nfet_01v8 ad=0.0588 pd=0.7 as=0.0588 ps=0.7 w=0.42 l=0.50
X150 VSS m2_5648_4247# VOUT VSS sky130_fd_pr__nfet_01v8 ad=0.0588 pd=0.7 as=0.0588 ps=0.7 w=0.42 l=0.50
X151 VOUT m2_5648_4247# VSS VSS sky130_fd_pr__nfet_01v8 ad=0.0588 pd=0.7 as=0.0588 ps=0.7 w=0.42 l=0.50
X152 VSS m2_5648_4247# VOUT VSS sky130_fd_pr__nfet_01v8 ad=0.0588 pd=0.7 as=0.0588 ps=0.7 w=0.42 l=0.50
X153 VSS m2_5648_4247# VOUT VSS sky130_fd_pr__nfet_01v8 ad=0.0588 pd=0.7 as=0.0588 ps=0.7 w=0.42 l=0.50
X154 VOUT m2_5648_4247# VSS VSS sky130_fd_pr__nfet_01v8 ad=0.0588 pd=0.7 as=0.0588 ps=0.7 w=0.42 l=0.50
X155 VSS m2_5648_4247# VOUT VSS sky130_fd_pr__nfet_01v8 ad=0.0588 pd=0.7 as=0.0588 ps=0.7 w=0.42 l=0.50
X156 VOUT m2_5648_4247# VSS VSS sky130_fd_pr__nfet_01v8 ad=0.0588 pd=0.7 as=0.0588 ps=0.7 w=0.42 l=0.50
X157 VSS m2_5648_4247# VOUT VSS sky130_fd_pr__nfet_01v8 ad=0.0588 pd=0.7 as=0.0588 ps=0.7 w=0.42 l=0.50
X158 VOUT m2_5648_4247# VSS VSS sky130_fd_pr__nfet_01v8 ad=0.0588 pd=0.7 as=0.0588 ps=0.7 w=0.42 l=0.50
X159 VSS m2_5648_4247# VOUT VSS sky130_fd_pr__nfet_01v8 ad=0.0588 pd=0.7 as=0.0588 ps=0.7 w=0.42 l=0.50
X160 VSS m2_5648_4247# VOUT VSS sky130_fd_pr__nfet_01v8 ad=0.0588 pd=0.7 as=0.0588 ps=0.7 w=0.42 l=0.50
X161 VOUT m2_5648_4247# VSS VSS sky130_fd_pr__nfet_01v8 ad=0.0588 pd=0.7 as=0.0588 ps=0.7 w=0.42 l=0.50
X162 VOUT m2_5648_4247# VSS VSS sky130_fd_pr__nfet_01v8 ad=0.0588 pd=0.7 as=0.0588 ps=0.7 w=0.42 l=0.50
X163 VOUT m2_5648_4247# VSS VSS sky130_fd_pr__nfet_01v8 ad=0.0588 pd=0.7 as=0.0588 ps=0.7 w=0.42 l=0.50
X164 VSS m2_5648_4247# VOUT VSS sky130_fd_pr__nfet_01v8 ad=0.0588 pd=0.7 as=0.0588 ps=0.7 w=0.42 l=0.50
X165 VOUT m2_5648_4247# VSS VSS sky130_fd_pr__nfet_01v8 ad=0.0588 pd=0.7 as=0.0588 ps=0.7 w=0.42 l=0.50
X166 VSS m2_5648_4247# VOUT VSS sky130_fd_pr__nfet_01v8 ad=0.0588 pd=0.7 as=0.0588 ps=0.7 w=0.42 l=0.50
X167 VSS m2_5648_4247# VOUT VSS sky130_fd_pr__nfet_01v8 ad=0.0588 pd=0.7 as=0.0588 ps=0.7 w=0.42 l=0.50
X168 VSS m2_5648_4247# VOUT VSS sky130_fd_pr__nfet_01v8 ad=0.0588 pd=0.7 as=0.0588 ps=0.7 w=0.42 l=0.50
X169 VSS m2_5648_4247# VOUT VSS sky130_fd_pr__nfet_01v8 ad=0.0588 pd=0.7 as=0.0588 ps=0.7 w=0.42 l=0.50
X170 VOUT m2_5648_4247# VSS VSS sky130_fd_pr__nfet_01v8 ad=0.0588 pd=0.7 as=0.0588 ps=0.7 w=0.42 l=0.50
X171 VOUT m2_5648_4247# VSS VSS sky130_fd_pr__nfet_01v8 ad=0.0588 pd=0.7 as=0.0588 ps=0.7 w=0.42 l=0.50
X172 VOUT m2_5648_4247# VSS VSS sky130_fd_pr__nfet_01v8 ad=0.0588 pd=0.7 as=0.0588 ps=0.7 w=0.42 l=0.50
X173 VSS m2_5648_4247# VOUT VSS sky130_fd_pr__nfet_01v8 ad=0.0588 pd=0.7 as=0.0588 ps=0.7 w=0.42 l=0.50
X174 VSS m2_5648_4247# VOUT VSS sky130_fd_pr__nfet_01v8 ad=0.0588 pd=0.7 as=0.0588 ps=0.7 w=0.42 l=0.50
X175 VOUT m2_5648_4247# VSS VSS sky130_fd_pr__nfet_01v8 ad=0.0588 pd=0.7 as=0.0588 ps=0.7 w=0.42 l=0.50
X176 VSS m2_5648_4247# VOUT VSS sky130_fd_pr__nfet_01v8 ad=0.0588 pd=0.7 as=0.0588 ps=0.7 w=0.42 l=0.50
X177 VSS m2_5648_4247# VOUT VSS sky130_fd_pr__nfet_01v8 ad=0.0588 pd=0.7 as=0.0588 ps=0.7 w=0.42 l=0.50
X178 VSS m2_5648_4247# VOUT VSS sky130_fd_pr__nfet_01v8 ad=0.0588 pd=0.7 as=0.0588 ps=0.7 w=0.42 l=0.50
X179 VOUT m2_5648_4247# VSS VSS sky130_fd_pr__nfet_01v8 ad=0.0588 pd=0.7 as=0.0588 ps=0.7 w=0.42 l=0.50
X180 VOUT m2_5648_4247# VSS VSS sky130_fd_pr__nfet_01v8 ad=0.0588 pd=0.7 as=0.0588 ps=0.7 w=0.42 l=0.50
X181 VOUT m2_5648_4247# VSS VSS sky130_fd_pr__nfet_01v8 ad=0.0588 pd=0.7 as=0.111 ps=1.37 w=0.42 l=0.50
X182 VOUT m2_5648_4247# VSS VSS sky130_fd_pr__nfet_01v8 ad=0.0588 pd=0.7 as=0.0588 ps=0.7 w=0.42 l=0.50
X183 VOUT m2_5648_4247# VSS VSS sky130_fd_pr__nfet_01v8 ad=0.0588 pd=0.7 as=0.0588 ps=0.7 w=0.42 l=0.50
X184 VOUT m2_5648_4247# VSS VSS sky130_fd_pr__nfet_01v8 ad=0.0588 pd=0.7 as=0.0588 ps=0.7 w=0.42 l=0.50
X185 VOUT m2_5648_4247# VSS VSS sky130_fd_pr__nfet_01v8 ad=0.0588 pd=0.7 as=0.0588 ps=0.7 w=0.42 l=0.50
X186 VSS m2_5648_4247# VOUT VSS sky130_fd_pr__nfet_01v8 ad=0.0588 pd=0.7 as=0.0588 ps=0.7 w=0.42 l=0.50
X187 VOUT m2_5648_4247# VSS VSS sky130_fd_pr__nfet_01v8 ad=0.0588 pd=0.7 as=0.0588 ps=0.7 w=0.42 l=0.50
X188 VOUT m2_5648_4247# VSS VSS sky130_fd_pr__nfet_01v8 ad=0.0588 pd=0.7 as=0.0588 ps=0.7 w=0.42 l=0.50
X189 VOUT m2_5648_4247# VSS VSS sky130_fd_pr__nfet_01v8 ad=0.0588 pd=0.7 as=0.0588 ps=0.7 w=0.42 l=0.50
X190 VSS m2_5648_4247# VOUT VSS sky130_fd_pr__nfet_01v8 ad=0.0588 pd=0.7 as=0.0588 ps=0.7 w=0.42 l=0.50
X191 VSS m2_5648_4247# VOUT VSS sky130_fd_pr__nfet_01v8 ad=0.0588 pd=0.7 as=0.0588 ps=0.7 w=0.42 l=0.50
X192 VSS m2_5648_4247# VOUT VSS sky130_fd_pr__nfet_01v8 ad=0.0588 pd=0.7 as=0.0588 ps=0.7 w=0.42 l=0.50
X193 VSS m2_5648_4247# VOUT VSS sky130_fd_pr__nfet_01v8 ad=0.0588 pd=0.7 as=0.0588 ps=0.7 w=0.42 l=0.50
X194 VOUT m2_5648_4247# VSS VSS sky130_fd_pr__nfet_01v8 ad=0.0588 pd=0.7 as=0.0588 ps=0.7 w=0.42 l=0.50
X195 VOUT m2_5648_4247# VSS VSS sky130_fd_pr__nfet_01v8 ad=0.0588 pd=0.7 as=0.0588 ps=0.7 w=0.42 l=0.50
X196 VOUT m2_5648_4247# VSS VSS sky130_fd_pr__nfet_01v8 ad=0.0588 pd=0.7 as=0.0588 ps=0.7 w=0.42 l=0.50
X197 VSS m2_5648_4247# VOUT VSS sky130_fd_pr__nfet_01v8 ad=0.0588 pd=0.7 as=0.0588 ps=0.7 w=0.42 l=0.50
X198 VSS m2_5648_4247# VOUT VSS sky130_fd_pr__nfet_01v8 ad=0.0588 pd=0.7 as=0.0588 ps=0.7 w=0.42 l=0.50
X199 VSS m2_5648_4247# VOUT VSS sky130_fd_pr__nfet_01v8 ad=0.0588 pd=0.7 as=0.0588 ps=0.7 w=0.42 l=0.50
X200 VSS m2_5648_4247# VOUT VSS sky130_fd_pr__nfet_01v8 ad=0.0588 pd=0.7 as=0.0588 ps=0.7 w=0.42 l=0.50
X201 VOUT m2_5648_4247# VSS VSS sky130_fd_pr__nfet_01v8 ad=0.0588 pd=0.7 as=0.0588 ps=0.7 w=0.42 l=0.50
X202 VSS m2_5648_4247# VOUT VSS sky130_fd_pr__nfet_01v8 ad=0.111 pd=1.37 as=0.0588 ps=0.7 w=0.42 l=0.50
X203 VOUT m2_5648_4247# VSS VSS sky130_fd_pr__nfet_01v8 ad=0.0588 pd=0.7 as=0.0588 ps=0.7 w=0.42 l=0.50
X204 VSS m2_5648_4247# VOUT VSS sky130_fd_pr__nfet_01v8 ad=0.0588 pd=0.7 as=0.0588 ps=0.7 w=0.42 l=0.50
X205 VOUT m2_5648_4247# VSS VSS sky130_fd_pr__nfet_01v8 ad=0.0588 pd=0.7 as=0.0588 ps=0.7 w=0.42 l=0.50
X206 VOUT m2_5648_4247# VSS VSS sky130_fd_pr__nfet_01v8 ad=0.0588 pd=0.7 as=0.0588 ps=0.7 w=0.42 l=0.50
X207 VSS m2_5648_4247# VOUT VSS sky130_fd_pr__nfet_01v8 ad=0.0588 pd=0.7 as=0.0588 ps=0.7 w=0.42 l=0.50
X208 VOUT m2_5648_4247# VSS VSS sky130_fd_pr__nfet_01v8 ad=0.0588 pd=0.7 as=0.0588 ps=0.7 w=0.42 l=0.50
X209 VSS m2_5648_4247# VOUT VSS sky130_fd_pr__nfet_01v8 ad=0.0588 pd=0.7 as=0.0588 ps=0.7 w=0.42 l=0.50
X210 VOUT m2_5648_4247# VSS VSS sky130_fd_pr__nfet_01v8 ad=0.0588 pd=0.7 as=0.0588 ps=0.7 w=0.42 l=0.50
X211 VSS m2_5648_4247# VOUT VSS sky130_fd_pr__nfet_01v8 ad=0.0588 pd=0.7 as=0.0588 ps=0.7 w=0.42 l=0.50
X212 VSS m2_5648_4247# VOUT VSS sky130_fd_pr__nfet_01v8 ad=0.0588 pd=0.7 as=0.0588 ps=0.7 w=0.42 l=0.50
X213 VSS m2_5648_4247# VOUT VSS sky130_fd_pr__nfet_01v8 ad=0.0588 pd=0.7 as=0.0588 ps=0.7 w=0.42 l=0.50
X214 VSS m2_5648_4247# VOUT VSS sky130_fd_pr__nfet_01v8 ad=0.0588 pd=0.7 as=0.0588 ps=0.7 w=0.42 l=0.50
X215 VOUT m2_5648_4247# VSS VSS sky130_fd_pr__nfet_01v8 ad=0.0588 pd=0.7 as=0.0588 ps=0.7 w=0.42 l=0.50
X216 VSS m2_5648_4247# VOUT VSS sky130_fd_pr__nfet_01v8 ad=0.0588 pd=0.7 as=0.0588 ps=0.7 w=0.42 l=0.50
X217 VOUT m2_5648_4247# VSS VSS sky130_fd_pr__nfet_01v8 ad=0.0588 pd=0.7 as=0.0588 ps=0.7 w=0.42 l=0.50
X218 VOUT m2_5648_4247# VSS VSS sky130_fd_pr__nfet_01v8 ad=0.0588 pd=0.7 as=0.0588 ps=0.7 w=0.42 l=0.50
X219 VOUT m2_5648_4247# VSS VSS sky130_fd_pr__nfet_01v8 ad=0.0588 pd=0.7 as=0.111 ps=1.37 w=0.42 l=0.50
X220 VSS m2_5648_4247# VOUT VSS sky130_fd_pr__nfet_01v8 ad=0.0588 pd=0.7 as=0.0588 ps=0.7 w=0.42 l=0.50
X221 VSS m2_5648_4247# VOUT VSS sky130_fd_pr__nfet_01v8 ad=0.0588 pd=0.7 as=0.0588 ps=0.7 w=0.42 l=0.50
X222 VSS m2_5648_4247# VOUT VSS sky130_fd_pr__nfet_01v8 ad=0.0588 pd=0.7 as=0.0588 ps=0.7 w=0.42 l=0.50
X223 VOUT m2_5648_4247# VSS VSS sky130_fd_pr__nfet_01v8 ad=0.0588 pd=0.7 as=0.0588 ps=0.7 w=0.42 l=0.50
X224 VOUT m2_5648_4247# VSS VSS sky130_fd_pr__nfet_01v8 ad=0.0588 pd=0.7 as=0.0588 ps=0.7 w=0.42 l=0.50
X225 VOUT m2_5648_4247# VSS VSS sky130_fd_pr__nfet_01v8 ad=0.0588 pd=0.7 as=0.0588 ps=0.7 w=0.42 l=0.50
X226 VOUT m2_5648_4247# VSS VSS sky130_fd_pr__nfet_01v8 ad=0.0588 pd=0.7 as=0.0588 ps=0.7 w=0.42 l=0.50
X227 VOUT m2_5648_4247# VSS VSS sky130_fd_pr__nfet_01v8 ad=0.0588 pd=0.7 as=0.0588 ps=0.7 w=0.42 l=0.50
X228 VOUT m2_5648_4247# VSS VSS sky130_fd_pr__nfet_01v8 ad=0.0588 pd=0.7 as=0.0588 ps=0.7 w=0.42 l=0.50
X229 VSS m2_5648_4247# VOUT VSS sky130_fd_pr__nfet_01v8 ad=0.0588 pd=0.7 as=0.0588 ps=0.7 w=0.42 l=0.50
X230 VSS m2_5648_4247# VOUT VSS sky130_fd_pr__nfet_01v8 ad=0.0588 pd=0.7 as=0.0588 ps=0.7 w=0.42 l=0.50
X231 VSS m2_5648_4247# VOUT VSS sky130_fd_pr__nfet_01v8 ad=0.0588 pd=0.7 as=0.0588 ps=0.7 w=0.42 l=0.50
X232 VSS m2_5648_4247# VOUT VSS sky130_fd_pr__nfet_01v8 ad=0.0588 pd=0.7 as=0.0588 ps=0.7 w=0.42 l=0.50
X233 VSS m2_5648_4247# VOUT VSS sky130_fd_pr__nfet_01v8 ad=0.0588 pd=0.7 as=0.0588 ps=0.7 w=0.42 l=0.50
X234 VSS m2_5648_4247# VOUT VSS sky130_fd_pr__nfet_01v8 ad=0.0588 pd=0.7 as=0.0588 ps=0.7 w=0.42 l=0.50
X235 VOUT m2_5648_4247# VSS VSS sky130_fd_pr__nfet_01v8 ad=0.0588 pd=0.7 as=0.0588 ps=0.7 w=0.42 l=0.50
X236 VOUT m2_5648_4247# VSS VSS sky130_fd_pr__nfet_01v8 ad=0.0588 pd=0.7 as=0.0588 ps=0.7 w=0.42 l=0.50
X237 VOUT m2_5648_4247# VSS VSS sky130_fd_pr__nfet_01v8 ad=0.0588 pd=0.7 as=0.0588 ps=0.7 w=0.42 l=0.50
X238 VOUT m2_5648_4247# VSS VSS sky130_fd_pr__nfet_01v8 ad=0.0588 pd=0.7 as=0.0588 ps=0.7 w=0.42 l=0.50
X239 VSS m2_5648_4247# VOUT VSS sky130_fd_pr__nfet_01v8 ad=0.0588 pd=0.7 as=0.0588 ps=0.7 w=0.42 l=0.50
X240 VSS m2_5648_4247# VOUT VSS sky130_fd_pr__nfet_01v8 ad=0.111 pd=1.37 as=0.0588 ps=0.7 w=0.42 l=0.50
X241 VSS m2_5648_4247# VOUT VSS sky130_fd_pr__nfet_01v8 ad=0.0588 pd=0.7 as=0.0588 ps=0.7 w=0.42 l=0.50
X242 VOUT m2_5648_4247# VSS VSS sky130_fd_pr__nfet_01v8 ad=0.0588 pd=0.7 as=0.0588 ps=0.7 w=0.42 l=0.50
X243 VOUT m2_5648_4247# VSS VSS sky130_fd_pr__nfet_01v8 ad=0.0588 pd=0.7 as=0.0588 ps=0.7 w=0.42 l=0.50
X244 VSS m2_5648_4247# VOUT VSS sky130_fd_pr__nfet_01v8 ad=0.0588 pd=0.7 as=0.0588 ps=0.7 w=0.42 l=0.50
X245 VSS m2_5648_4247# VOUT VSS sky130_fd_pr__nfet_01v8 ad=0.0588 pd=0.7 as=0.0588 ps=0.7 w=0.42 l=0.50
X246 VOUT m2_5648_4247# VSS VSS sky130_fd_pr__nfet_01v8 ad=0.0588 pd=0.7 as=0.0588 ps=0.7 w=0.42 l=0.50
X247 VOUT m2_5648_4247# VSS VSS sky130_fd_pr__nfet_01v8 ad=0.0588 pd=0.7 as=0.0588 ps=0.7 w=0.42 l=0.50
X248 VSS m2_5648_4247# VOUT VSS sky130_fd_pr__nfet_01v8 ad=0.0588 pd=0.7 as=0.0588 ps=0.7 w=0.42 l=0.50
X249 VSS m2_5648_4247# VOUT VSS sky130_fd_pr__nfet_01v8 ad=0.0588 pd=0.7 as=0.0588 ps=0.7 w=0.42 l=0.50
X250 VSS m2_5648_4247# VOUT VSS sky130_fd_pr__nfet_01v8 ad=0.0588 pd=0.7 as=0.0588 ps=0.7 w=0.42 l=0.50
X251 VSS m2_5648_4247# VOUT VSS sky130_fd_pr__nfet_01v8 ad=0.0588 pd=0.7 as=0.0588 ps=0.7 w=0.42 l=0.50
X252 VOUT m2_5648_4247# VSS VSS sky130_fd_pr__nfet_01v8 ad=0.0588 pd=0.7 as=0.0588 ps=0.7 w=0.42 l=0.50
X253 VOUT m2_5648_4247# VSS VSS sky130_fd_pr__nfet_01v8 ad=0.0588 pd=0.7 as=0.0588 ps=0.7 w=0.42 l=0.50
X254 VOUT m2_5648_4247# VSS VSS sky130_fd_pr__nfet_01v8 ad=0.0588 pd=0.7 as=0.0588 ps=0.7 w=0.42 l=0.50
X255 VSS m2_5648_4247# VOUT VSS sky130_fd_pr__nfet_01v8 ad=0.0588 pd=0.7 as=0.0588 ps=0.7 w=0.42 l=0.50
X256 VSS m2_5648_4247# VOUT VSS sky130_fd_pr__nfet_01v8 ad=0.0588 pd=0.7 as=0.0588 ps=0.7 w=0.42 l=0.50
X257 VSS m2_5648_4247# VOUT VSS sky130_fd_pr__nfet_01v8 ad=0.0588 pd=0.7 as=0.0588 ps=0.7 w=0.42 l=0.50
X258 VOUT m2_5648_4247# VSS VSS sky130_fd_pr__nfet_01v8 ad=0.0588 pd=0.7 as=0.0588 ps=0.7 w=0.42 l=0.50
X259 VOUT m2_5648_4247# VSS VSS sky130_fd_pr__nfet_01v8 ad=0.0588 pd=0.7 as=0.0588 ps=0.7 w=0.42 l=0.50
X260 VOUT m2_5648_4247# VSS VSS sky130_fd_pr__nfet_01v8 ad=0.0588 pd=0.7 as=0.0588 ps=0.7 w=0.42 l=0.50
X261 VOUT m2_5648_4247# VSS VSS sky130_fd_pr__nfet_01v8 ad=0.0588 pd=0.7 as=0.0588 ps=0.7 w=0.42 l=0.50
X262 VSS m2_5648_4247# VOUT VSS sky130_fd_pr__nfet_01v8 ad=0.0588 pd=0.7 as=0.0588 ps=0.7 w=0.42 l=0.50
X263 VSS m2_5648_4247# VOUT VSS sky130_fd_pr__nfet_01v8 ad=0.0588 pd=0.7 as=0.0588 ps=0.7 w=0.42 l=0.50
X264 VOUT m2_5648_4247# VSS VSS sky130_fd_pr__nfet_01v8 ad=0.0588 pd=0.7 as=0.0588 ps=0.7 w=0.42 l=0.50
X265 VSS m2_5648_4247# VOUT VSS sky130_fd_pr__nfet_01v8 ad=0.0588 pd=0.7 as=0.0588 ps=0.7 w=0.42 l=0.50
X266 VSS m2_5648_4247# VOUT VSS sky130_fd_pr__nfet_01v8 ad=0.0588 pd=0.7 as=0.0588 ps=0.7 w=0.42 l=0.50
X267 VSS m2_5648_4247# VOUT VSS sky130_fd_pr__nfet_01v8 ad=0.0588 pd=0.7 as=0.0588 ps=0.7 w=0.42 l=0.50
X268 VOUT m2_5648_4247# VSS VSS sky130_fd_pr__nfet_01v8 ad=0.0588 pd=0.7 as=0.0588 ps=0.7 w=0.42 l=0.50
X269 VOUT m2_5648_4247# VSS VSS sky130_fd_pr__nfet_01v8 ad=0.0588 pd=0.7 as=0.0588 ps=0.7 w=0.42 l=0.50
X270 VOUT m2_5648_4247# VSS VSS sky130_fd_pr__nfet_01v8 ad=0.0588 pd=0.7 as=0.0588 ps=0.7 w=0.42 l=0.50
X271 VOUT m2_5648_4247# VSS VSS sky130_fd_pr__nfet_01v8 ad=0.0588 pd=0.7 as=0.111 ps=1.37 w=0.42 l=0.50
X272 VOUT m2_5648_4247# VSS VSS sky130_fd_pr__nfet_01v8 ad=0.0588 pd=0.7 as=0.111 ps=1.37 w=0.42 l=0.50
X273 VSS m2_5648_4247# VOUT VSS sky130_fd_pr__nfet_01v8 ad=0.0588 pd=0.7 as=0.0588 ps=0.7 w=0.42 l=0.50
X274 VSS m2_5648_4247# VOUT VSS sky130_fd_pr__nfet_01v8 ad=0.0588 pd=0.7 as=0.0588 ps=0.7 w=0.42 l=0.50
X275 VSS m2_5648_4247# VOUT VSS sky130_fd_pr__nfet_01v8 ad=0.0588 pd=0.7 as=0.0588 ps=0.7 w=0.42 l=0.50
X276 VOUT m2_5648_4247# VSS VSS sky130_fd_pr__nfet_01v8 ad=0.0588 pd=0.7 as=0.0588 ps=0.7 w=0.42 l=0.50
X277 VSS m2_5648_4247# VOUT VSS sky130_fd_pr__nfet_01v8 ad=0.0588 pd=0.7 as=0.0588 ps=0.7 w=0.42 l=0.50
X278 VOUT m2_5648_4247# VSS VSS sky130_fd_pr__nfet_01v8 ad=0.0588 pd=0.7 as=0.0588 ps=0.7 w=0.42 l=0.50
X279 VSS m2_5648_4247# VOUT VSS sky130_fd_pr__nfet_01v8 ad=0.0588 pd=0.7 as=0.0588 ps=0.7 w=0.42 l=0.50
X280 VOUT m2_5648_4247# VSS VSS sky130_fd_pr__nfet_01v8 ad=0.0588 pd=0.7 as=0.0588 ps=0.7 w=0.42 l=0.50
X281 VOUT m2_5648_4247# VSS VSS sky130_fd_pr__nfet_01v8 ad=0.0588 pd=0.7 as=0.0588 ps=0.7 w=0.42 l=0.50
X282 VSS m2_5648_4247# VOUT VSS sky130_fd_pr__nfet_01v8 ad=0.0588 pd=0.7 as=0.0588 ps=0.7 w=0.42 l=0.50
X283 VSS m2_5648_4247# VOUT VSS sky130_fd_pr__nfet_01v8 ad=0.0588 pd=0.7 as=0.0588 ps=0.7 w=0.42 l=0.50
X284 VSS m2_5648_4247# VOUT VSS sky130_fd_pr__nfet_01v8 ad=0.0588 pd=0.7 as=0.0588 ps=0.7 w=0.42 l=0.50
X285 VSS m2_5648_4247# VOUT VSS sky130_fd_pr__nfet_01v8 ad=0.0588 pd=0.7 as=0.0588 ps=0.7 w=0.42 l=0.50
X286 VSS m2_5648_4247# VOUT VSS sky130_fd_pr__nfet_01v8 ad=0.0588 pd=0.7 as=0.0588 ps=0.7 w=0.42 l=0.50
X287 VSS m2_5648_4247# VOUT VSS sky130_fd_pr__nfet_01v8 ad=0.0588 pd=0.7 as=0.0588 ps=0.7 w=0.42 l=0.50
X288 VOUT m2_5648_4247# VSS VSS sky130_fd_pr__nfet_01v8 ad=0.0588 pd=0.7 as=0.0588 ps=0.7 w=0.42 l=0.50
X289 VOUT m2_5648_4247# VSS VSS sky130_fd_pr__nfet_01v8 ad=0.0588 pd=0.7 as=0.0588 ps=0.7 w=0.42 l=0.50