simulator lang=spectre
parameters L=360n
