.subckt cm_ota_extracted ID VOUT VINN VINP VSS VDD
* SPICE3 file created from CURRENT_MIRROR_OTA_0.ext - technology: sky130A

X0 m1_6966_4088# VINP m1_5730_4004# VSS sky130_fd_pr__nfet_01v8 ad=0.0588 pd=0.7 as=0.0588 ps=0.7 w=0.42 l=0.5
X1 m1_6966_4088# VINP m1_5730_4004# VSS sky130_fd_pr__nfet_01v8 ad=0.0588 pd=0.7 as=0.0588 ps=0.7 w=0.42 l=0.5
X2 m1_5730_4004# VINP m1_6966_4088# VSS sky130_fd_pr__nfet_01v8 ad=0.0588 pd=0.7 as=0.0588 ps=0.7 w=0.42 l=0.5
X3 m1_5730_4004# VINP m1_6966_4088# VSS sky130_fd_pr__nfet_01v8 ad=0.0588 pd=0.7 as=0.0588 ps=0.7 w=0.42 l=0.5
X4 m1_6966_4088# VINP m1_5730_4004# VSS sky130_fd_pr__nfet_01v8 ad=0.0588 pd=0.7 as=0.0588 ps=0.7 w=0.42 l=0.5
X5 m1_5730_4004# VINP m1_6966_4088# VSS sky130_fd_pr__nfet_01v8 ad=0.0588 pd=0.7 as=0.0588 ps=0.7 w=0.42 l=0.5
X6 m1_6966_4088# VINP m1_5730_4004# VSS sky130_fd_pr__nfet_01v8 ad=0.0588 pd=0.7 as=0.0588 ps=0.7 w=0.42 l=0.5
X7 m1_5730_4004# VINP m1_6966_4088# VSS sky130_fd_pr__nfet_01v8 ad=0.0588 pd=0.7 as=0.0588 ps=0.7 w=0.42 l=0.5
X8 m1_6966_4088# VINP m1_5730_4004# VSS sky130_fd_pr__nfet_01v8 ad=0.0588 pd=0.7 as=0.0588 ps=0.7 w=0.42 l=0.5
X9 m1_6966_4088# VINP m1_5730_4004# VSS sky130_fd_pr__nfet_01v8 ad=0.0588 pd=0.7 as=0.0588 ps=0.7 w=0.42 l=0.5
X10 m1_5730_4004# VINP m1_6966_4088# VSS sky130_fd_pr__nfet_01v8 ad=0.0588 pd=0.7 as=0.0588 ps=0.7 w=0.42 l=0.5
X11 m1_6966_4088# VINP m1_5730_4004# VSS sky130_fd_pr__nfet_01v8 ad=0.0588 pd=0.7 as=0.0588 ps=0.7 w=0.42 l=0.5
X12 m1_5730_4004# VINP m1_6966_4088# VSS sky130_fd_pr__nfet_01v8 ad=0.0588 pd=0.7 as=0.0588 ps=0.7 w=0.42 l=0.5
X13 m1_6966_4088# VINP m1_5730_4004# VSS sky130_fd_pr__nfet_01v8 ad=0.0588 pd=0.7 as=0.0588 ps=0.7 w=0.42 l=0.5
X14 m1_5730_4004# VINP m1_6966_4088# VSS sky130_fd_pr__nfet_01v8 ad=0.0588 pd=0.7 as=0.0588 ps=0.7 w=0.42 l=0.5
X15 m1_6966_4088# VINP m1_5730_4004# VSS sky130_fd_pr__nfet_01v8 ad=0.0588 pd=0.7 as=0.0588 ps=0.7 w=0.42 l=0.5
X16 m1_6966_4088# VINP m1_5730_4004# VSS sky130_fd_pr__nfet_01v8 ad=0.0588 pd=0.7 as=0.0588 ps=0.7 w=0.42 l=0.5
X17 m1_5730_4004# VINP m1_6966_4088# VSS sky130_fd_pr__nfet_01v8 ad=0.0588 pd=0.7 as=0.0588 ps=0.7 w=0.42 l=0.5
X18 m1_6966_4088# VINP m1_5730_4004# VSS sky130_fd_pr__nfet_01v8 ad=0.0588 pd=0.7 as=0.0588 ps=0.7 w=0.42 l=0.5
X19 m1_5730_4004# VINP m1_6966_4088# VSS sky130_fd_pr__nfet_01v8 ad=0.0588 pd=0.7 as=0.0588 ps=0.7 w=0.42 l=0.5
X20 m1_5730_4004# VINP m1_6966_4088# VSS sky130_fd_pr__nfet_01v8 ad=0.111 pd=1.37 as=0.0588 ps=0.7 w=0.42 l=0.5
X21 m1_5730_4004# VINP m1_6966_4088# VSS sky130_fd_pr__nfet_01v8 ad=0.0588 pd=0.7 as=0.0588 ps=0.7 w=0.42 l=0.5
X22 m1_5730_4004# VINP m1_6966_4088# VSS sky130_fd_pr__nfet_01v8 ad=0.0588 pd=0.7 as=0.0588 ps=0.7 w=0.42 l=0.5
X23 m1_6966_4088# VINP m1_5730_4004# VSS sky130_fd_pr__nfet_01v8 ad=0.0588 pd=0.7 as=0.111 ps=1.37 w=0.42 l=0.5
X24 m1_5730_4004# VINP m1_6966_4088# VSS sky130_fd_pr__nfet_01v8 ad=0.0588 pd=0.7 as=0.0588 ps=0.7 w=0.42 l=0.5
X25 m1_6966_4088# VINP m1_5730_4004# VSS sky130_fd_pr__nfet_01v8 ad=0.0588 pd=0.7 as=0.0588 ps=0.7 w=0.42 l=0.5
X26 m1_5730_4004# VINP m1_6966_4088# VSS sky130_fd_pr__nfet_01v8 ad=0.0588 pd=0.7 as=0.0588 ps=0.7 w=0.42 l=0.5
X27 m1_6966_4088# VINP m1_5730_4004# VSS sky130_fd_pr__nfet_01v8 ad=0.0588 pd=0.7 as=0.0588 ps=0.7 w=0.42 l=0.5
X28 m1_3838_4088# VINN m1_5730_4004# VSS sky130_fd_pr__nfet_01v8 ad=1.65 pd=19.6 as=6.8 ps=81.1 w=0.42 l=0.5
X29 m1_3838_4088# VINN m1_5730_4004# VSS sky130_fd_pr__nfet_01v8 ad=0 pd=0 as=0 ps=0 w=0.42 l=0.5
X30 m1_5730_4004# VINN m1_3838_4088# VSS sky130_fd_pr__nfet_01v8 ad=0 pd=0 as=0 ps=0 w=0.42 l=0.5
X31 m1_5730_4004# VINN m1_3838_4088# VSS sky130_fd_pr__nfet_01v8 ad=0 pd=0 as=0 ps=0 w=0.42 l=0.5
X32 m1_3838_4088# VINN m1_5730_4004# VSS sky130_fd_pr__nfet_01v8 ad=0 pd=0 as=0 ps=0 w=0.42 l=0.5
X33 m1_5730_4004# VINN m1_3838_4088# VSS sky130_fd_pr__nfet_01v8 ad=0 pd=0 as=0 ps=0 w=0.42 l=0.5
X34 m1_3838_4088# VINN m1_5730_4004# VSS sky130_fd_pr__nfet_01v8 ad=0 pd=0 as=0 ps=0 w=0.42 l=0.5
X35 m1_5730_4004# VINN m1_3838_4088# VSS sky130_fd_pr__nfet_01v8 ad=0 pd=0 as=0 ps=0 w=0.42 l=0.5
X36 m1_3838_4088# VINN m1_5730_4004# VSS sky130_fd_pr__nfet_01v8 ad=0 pd=0 as=0 ps=0 w=0.42 l=0.5
X37 m1_3838_4088# VINN m1_5730_4004# VSS sky130_fd_pr__nfet_01v8 ad=0 pd=0 as=0 ps=0 w=0.42 l=0.5
X38 m1_5730_4004# VINN m1_3838_4088# VSS sky130_fd_pr__nfet_01v8 ad=0 pd=0 as=0 ps=0 w=0.42 l=0.5
X39 m1_3838_4088# VINN m1_5730_4004# VSS sky130_fd_pr__nfet_01v8 ad=0 pd=0 as=0 ps=0 w=0.42 l=0.5
X40 m1_5730_4004# VINN m1_3838_4088# VSS sky130_fd_pr__nfet_01v8 ad=0 pd=0 as=0 ps=0 w=0.42 l=0.5
X41 m1_3838_4088# VINN m1_5730_4004# VSS sky130_fd_pr__nfet_01v8 ad=0 pd=0 as=0 ps=0 w=0.42 l=0.5
X42 m1_5730_4004# VINN m1_3838_4088# VSS sky130_fd_pr__nfet_01v8 ad=0 pd=0 as=0 ps=0 w=0.42 l=0.5
X43 m1_3838_4088# VINN m1_5730_4004# VSS sky130_fd_pr__nfet_01v8 ad=0 pd=0 as=0 ps=0 w=0.42 l=0.5
X44 m1_3838_4088# VINN m1_5730_4004# VSS sky130_fd_pr__nfet_01v8 ad=0 pd=0 as=0 ps=0 w=0.42 l=0.5
X45 m1_5730_4004# VINN m1_3838_4088# VSS sky130_fd_pr__nfet_01v8 ad=0 pd=0 as=0 ps=0 w=0.42 l=0.5
X46 m1_3838_4088# VINN m1_5730_4004# VSS sky130_fd_pr__nfet_01v8 ad=0 pd=0 as=0 ps=0 w=0.42 l=0.5
X47 m1_5730_4004# VINN m1_3838_4088# VSS sky130_fd_pr__nfet_01v8 ad=0 pd=0 as=0 ps=0 w=0.42 l=0.5
X48 m1_5730_4004# VINN m1_3838_4088# VSS sky130_fd_pr__nfet_01v8 ad=0 pd=0 as=0 ps=0 w=0.42 l=0.5
X49 m1_5730_4004# VINN m1_3838_4088# VSS sky130_fd_pr__nfet_01v8 ad=0 pd=0 as=0 ps=0 w=0.42 l=0.5
X50 m1_5730_4004# VINN m1_3838_4088# VSS sky130_fd_pr__nfet_01v8 ad=0 pd=0 as=0 ps=0 w=0.42 l=0.5
X51 m1_3838_4088# VINN m1_5730_4004# VSS sky130_fd_pr__nfet_01v8 ad=0 pd=0 as=0 ps=0 w=0.42 l=0.5
X52 m1_5730_4004# VINN m1_3838_4088# VSS sky130_fd_pr__nfet_01v8 ad=0 pd=0 as=0 ps=0 w=0.42 l=0.5
X53 m1_3838_4088# VINN m1_5730_4004# VSS sky130_fd_pr__nfet_01v8 ad=0 pd=0 as=0 ps=0 w=0.42 l=0.5
X54 m1_5730_4004# VINN m1_3838_4088# VSS sky130_fd_pr__nfet_01v8 ad=0 pd=0 as=0 ps=0 w=0.42 l=0.5
X55 m1_3838_4088# VINN m1_5730_4004# VSS sky130_fd_pr__nfet_01v8 ad=0 pd=0 as=0 ps=0 w=0.42 l=0.5
X56 m1_2204_8288# m1_2204_8288# VSS VSS sky130_fd_pr__nfet_01v8 ad=0.0588 pd=0.7 as=0.0588 ps=0.7 w=0.42 l=0.5
X57 m1_2204_8288# m1_2204_8288# VSS VSS sky130_fd_pr__nfet_01v8 ad=0.0588 pd=0.7 as=0.0588 ps=0.7 w=0.42 l=0.5
X58 VSS m1_2204_8288# m1_2204_8288# VSS sky130_fd_pr__nfet_01v8 ad=0.0588 pd=0.7 as=0.0588 ps=0.7 w=0.42 l=0.5
X59 VSS m1_2204_8288# m1_2204_8288# VSS sky130_fd_pr__nfet_01v8 ad=0.0588 pd=0.7 as=0.0588 ps=0.7 w=0.42 l=0.5
X60 VSS m1_2204_8288# m1_2204_8288# VSS sky130_fd_pr__nfet_01v8 ad=0.0588 pd=0.7 as=0.0588 ps=0.7 w=0.42 l=0.5
X61 VSS m1_2204_8288# m1_2204_8288# VSS sky130_fd_pr__nfet_01v8 ad=0.0588 pd=0.7 as=0.0588 ps=0.7 w=0.42 l=0.5
X62 m1_2204_8288# m1_2204_8288# VSS VSS sky130_fd_pr__nfet_01v8 ad=0.0588 pd=0.7 as=0.0588 ps=0.7 w=0.42 l=0.5
X63 VSS m1_2204_8288# m1_2204_8288# VSS sky130_fd_pr__nfet_01v8 ad=0.0588 pd=0.7 as=0.0588 ps=0.7 w=0.42 l=0.5
X64 m1_2204_8288# m1_2204_8288# VSS VSS sky130_fd_pr__nfet_01v8 ad=0.0588 pd=0.7 as=0.0588 ps=0.7 w=0.42 l=0.5
X65 m1_2204_8288# m1_2204_8288# VSS VSS sky130_fd_pr__nfet_01v8 ad=0.0588 pd=0.7 as=0.0588 ps=0.7 w=0.42 l=0.5
X66 m1_2204_8288# m1_2204_8288# VSS VSS sky130_fd_pr__nfet_01v8 ad=0.0588 pd=0.7 as=0.0588 ps=0.7 w=0.42 l=0.5
X67 VSS m1_2204_8288# m1_2204_8288# VSS sky130_fd_pr__nfet_01v8 ad=0.0588 pd=0.7 as=0.0588 ps=0.7 w=0.42 l=0.5
X68 m1_2204_8288# m1_2204_8288# VSS VSS sky130_fd_pr__nfet_01v8 ad=0.0588 pd=0.7 as=0.0588 ps=0.7 w=0.42 l=0.5
X69 m1_2204_8288# m1_2204_8288# VSS VSS sky130_fd_pr__nfet_01v8 ad=0.0588 pd=0.7 as=0.0588 ps=0.7 w=0.42 l=0.5
X70 VSS m1_2204_8288# m1_2204_8288# VSS sky130_fd_pr__nfet_01v8 ad=0.0588 pd=0.7 as=0.0588 ps=0.7 w=0.42 l=0.5
X71 m1_2204_8288# m1_2204_8288# VSS VSS sky130_fd_pr__nfet_01v8 ad=0.0588 pd=0.7 as=0.0588 ps=0.7 w=0.42 l=0.5
X72 VSS m1_2204_8288# m1_2204_8288# VSS sky130_fd_pr__nfet_01v8 ad=0.111 pd=1.37 as=0.0588 ps=0.7 w=0.42 l=0.5
X73 VSS m1_2204_8288# m1_2204_8288# VSS sky130_fd_pr__nfet_01v8 ad=0.0588 pd=0.7 as=0.0588 ps=0.7 w=0.42 l=0.5
X74 VSS m1_2204_8288# m1_2204_8288# VSS sky130_fd_pr__nfet_01v8 ad=0.0588 pd=0.7 as=0.0588 ps=0.7 w=0.42 l=0.5
X75 m1_2204_8288# m1_2204_8288# VSS VSS sky130_fd_pr__nfet_01v8 ad=0.0588 pd=0.7 as=0.0588 ps=0.7 w=0.42 l=0.5
X76 VSS m1_2204_8288# m1_2204_8288# VSS sky130_fd_pr__nfet_01v8 ad=0.0588 pd=0.7 as=0.0588 ps=0.7 w=0.42 l=0.5
X77 m1_2204_8288# m1_2204_8288# VSS VSS sky130_fd_pr__nfet_01v8 ad=0.0588 pd=0.7 as=0.0588 ps=0.7 w=0.42 l=0.5
X78 m1_2204_8288# m1_2204_8288# VSS VSS sky130_fd_pr__nfet_01v8 ad=0.0588 pd=0.7 as=0.0588 ps=0.7 w=0.42 l=0.5
X79 VSS m1_2204_8288# m1_2204_8288# VSS sky130_fd_pr__nfet_01v8 ad=0.0588 pd=0.7 as=0.0588 ps=0.7 w=0.42 l=0.5
X80 m1_2204_8288# m1_2204_8288# VSS VSS sky130_fd_pr__nfet_01v8 ad=0.0588 pd=0.7 as=0.0588 ps=0.7 w=0.42 l=0.5
X81 VSS m1_2204_8288# m1_2204_8288# VSS sky130_fd_pr__nfet_01v8 ad=0.0588 pd=0.7 as=0.0588 ps=0.7 w=0.42 l=0.5
X82 VSS m1_2204_8288# m1_2204_8288# VSS sky130_fd_pr__nfet_01v8 ad=0.0588 pd=0.7 as=0.0588 ps=0.7 w=0.42 l=0.5
X83 m1_2204_8288# m1_2204_8288# VSS VSS sky130_fd_pr__nfet_01v8 ad=0.0588 pd=0.7 as=0.0588 ps=0.7 w=0.42 l=0.5
X84 m1_2204_8288# m1_2204_8288# VSS VSS sky130_fd_pr__nfet_01v8 ad=0.0588 pd=0.7 as=0.0588 ps=0.7 w=0.42 l=0.5
X85 m1_2204_8288# m1_2204_8288# VSS VSS sky130_fd_pr__nfet_01v8 ad=0.0588 pd=0.7 as=0.0588 ps=0.7 w=0.42 l=0.5
X86 VSS m1_2204_8288# m1_2204_8288# VSS sky130_fd_pr__nfet_01v8 ad=0.0588 pd=0.7 as=0.0588 ps=0.7 w=0.42 l=0.5
X87 VSS m1_2204_8288# m1_2204_8288# VSS sky130_fd_pr__nfet_01v8 ad=0.0588 pd=0.7 as=0.0588 ps=0.7 w=0.42 l=0.5
X88 m1_2204_8288# m1_2204_8288# VSS VSS sky130_fd_pr__nfet_01v8 ad=0.0588 pd=0.7 as=0.0588 ps=0.7 w=0.42 l=0.5
X89 VSS m1_2204_8288# m1_2204_8288# VSS sky130_fd_pr__nfet_01v8 ad=0.0588 pd=0.7 as=0.0588 ps=0.7 w=0.42 l=0.5
X90 VSS m1_2204_8288# m1_2204_8288# VSS sky130_fd_pr__nfet_01v8 ad=0.0588 pd=0.7 as=0.0588 ps=0.7 w=0.42 l=0.5
X91 VSS m1_2204_8288# m1_2204_8288# VSS sky130_fd_pr__nfet_01v8 ad=0.0588 pd=0.7 as=0.0588 ps=0.7 w=0.42 l=0.5
X92 VSS m1_2204_8288# m1_2204_8288# VSS sky130_fd_pr__nfet_01v8 ad=0.0588 pd=0.7 as=0.0588 ps=0.7 w=0.42 l=0.5
X93 m1_2204_8288# m1_2204_8288# VSS VSS sky130_fd_pr__nfet_01v8 ad=0.0588 pd=0.7 as=0.0588 ps=0.7 w=0.42 l=0.5
X94 m1_2204_8288# m1_2204_8288# VSS VSS sky130_fd_pr__nfet_01v8 ad=0.0588 pd=0.7 as=0.0588 ps=0.7 w=0.42 l=0.5
X95 m1_2204_8288# m1_2204_8288# VSS VSS sky130_fd_pr__nfet_01v8 ad=0.0588 pd=0.7 as=0.0588 ps=0.7 w=0.42 l=0.5
X96 m1_2204_8288# m1_2204_8288# VSS VSS sky130_fd_pr__nfet_01v8 ad=0.0588 pd=0.7 as=0.0588 ps=0.7 w=0.42 l=0.5
X97 VSS m1_2204_8288# m1_2204_8288# VSS sky130_fd_pr__nfet_01v8 ad=0.0588 pd=0.7 as=0.0588 ps=0.7 w=0.42 l=0.5
X98 VSS m1_2204_8288# m1_2204_8288# VSS sky130_fd_pr__nfet_01v8 ad=0.0588 pd=0.7 as=0.0588 ps=0.7 w=0.42 l=0.5
X99 m1_2204_8288# m1_2204_8288# VSS VSS sky130_fd_pr__nfet_01v8 ad=0.0588 pd=0.7 as=0.0588 ps=0.7 w=0.42 l=0.5
X100 VSS m1_2204_8288# m1_2204_8288# VSS sky130_fd_pr__nfet_01v8 ad=0.0588 pd=0.7 as=0.0588 ps=0.7 w=0.42 l=0.5
X101 VSS m1_2204_8288# m1_2204_8288# VSS sky130_fd_pr__nfet_01v8 ad=0.0588 pd=0.7 as=0.0588 ps=0.7 w=0.42 l=0.5
X102 m1_2204_8288# m1_2204_8288# VSS VSS sky130_fd_pr__nfet_01v8 ad=0.0588 pd=0.7 as=0.0588 ps=0.7 w=0.42 l=0.5
X103 VSS m1_2204_8288# m1_2204_8288# VSS sky130_fd_pr__nfet_01v8 ad=0.0588 pd=0.7 as=0.0588 ps=0.7 w=0.42 l=0.5
X104 m1_2204_8288# m1_2204_8288# VSS VSS sky130_fd_pr__nfet_01v8 ad=0.0588 pd=0.7 as=0.0588 ps=0.7 w=0.42 l=0.5
X105 m1_2204_8288# m1_2204_8288# VSS VSS sky130_fd_pr__nfet_01v8 ad=0.0588 pd=0.7 as=0.0588 ps=0.7 w=0.42 l=0.5
X106 m1_2204_8288# m1_2204_8288# VSS VSS sky130_fd_pr__nfet_01v8 ad=0.0588 pd=0.7 as=0.111 ps=1.37 w=0.42 l=0.5
X107 m1_2204_8288# m1_2204_8288# VSS VSS sky130_fd_pr__nfet_01v8 ad=0.0588 pd=0.7 as=0.0588 ps=0.7 w=0.42 l=0.5
X108 VSS m1_2204_8288# m1_2204_8288# VSS sky130_fd_pr__nfet_01v8 ad=0.0588 pd=0.7 as=0.0588 ps=0.7 w=0.42 l=0.5
X109 m1_2204_8288# m1_2204_8288# VSS VSS sky130_fd_pr__nfet_01v8 ad=0.0588 pd=0.7 as=0.0588 ps=0.7 w=0.42 l=0.5
X110 m1_2204_8288# m1_2204_8288# VSS VSS sky130_fd_pr__nfet_01v8 ad=0.0588 pd=0.7 as=0.0588 ps=0.7 w=0.42 l=0.5
X111 m1_2204_8288# m1_2204_8288# VSS VSS sky130_fd_pr__nfet_01v8 ad=0.0588 pd=0.7 as=0.0588 ps=0.7 w=0.42 l=0.5
X112 m1_2204_8288# m1_2204_8288# VSS VSS sky130_fd_pr__nfet_01v8 ad=0.0588 pd=0.7 as=0.0588 ps=0.7 w=0.42 l=0.5
X113 VSS m1_2204_8288# m1_2204_8288# VSS sky130_fd_pr__nfet_01v8 ad=0.0588 pd=0.7 as=0.0588 ps=0.7 w=0.42 l=0.5
X114 m1_2204_8288# m1_2204_8288# VSS VSS sky130_fd_pr__nfet_01v8 ad=0.0588 pd=0.7 as=0.0588 ps=0.7 w=0.42 l=0.5
X115 m1_2204_8288# m1_2204_8288# VSS VSS sky130_fd_pr__nfet_01v8 ad=0.0588 pd=0.7 as=0.0588 ps=0.7 w=0.42 l=0.5
X116 m1_2204_8288# m1_2204_8288# VSS VSS sky130_fd_pr__nfet_01v8 ad=0.0588 pd=0.7 as=0.0588 ps=0.7 w=0.42 l=0.5
X117 VSS m1_2204_8288# m1_2204_8288# VSS sky130_fd_pr__nfet_01v8 ad=0.0588 pd=0.7 as=0.0588 ps=0.7 w=0.42 l=0.5
X118 VSS m1_2204_8288# m1_2204_8288# VSS sky130_fd_pr__nfet_01v8 ad=0.0588 pd=0.7 as=0.0588 ps=0.7 w=0.42 l=0.5
X119 VSS m1_2204_8288# m1_2204_8288# VSS sky130_fd_pr__nfet_01v8 ad=0.0588 pd=0.7 as=0.0588 ps=0.7 w=0.42 l=0.5
X120 VSS m1_2204_8288# m1_2204_8288# VSS sky130_fd_pr__nfet_01v8 ad=0.0588 pd=0.7 as=0.0588 ps=0.7 w=0.42 l=0.5
X121 m1_2204_8288# m1_2204_8288# VSS VSS sky130_fd_pr__nfet_01v8 ad=0.0588 pd=0.7 as=0.0588 ps=0.7 w=0.42 l=0.5
X122 m1_2204_8288# m1_2204_8288# VSS VSS sky130_fd_pr__nfet_01v8 ad=0.0588 pd=0.7 as=0.0588 ps=0.7 w=0.42 l=0.5
X123 m1_2204_8288# m1_2204_8288# VSS VSS sky130_fd_pr__nfet_01v8 ad=0.0588 pd=0.7 as=0.0588 ps=0.7 w=0.42 l=0.5
X124 VSS m1_2204_8288# m1_2204_8288# VSS sky130_fd_pr__nfet_01v8 ad=0.0588 pd=0.7 as=0.0588 ps=0.7 w=0.42 l=0.5
X125 m1_2204_8288# m1_2204_8288# VSS VSS sky130_fd_pr__nfet_01v8 ad=0.0588 pd=0.7 as=0.0588 ps=0.7 w=0.42 l=0.5
X126 VSS m1_2204_8288# m1_2204_8288# VSS sky130_fd_pr__nfet_01v8 ad=0.0588 pd=0.7 as=0.0588 ps=0.7 w=0.42 l=0.5
X127 VSS m1_2204_8288# m1_2204_8288# VSS sky130_fd_pr__nfet_01v8 ad=0.0588 pd=0.7 as=0.0588 ps=0.7 w=0.42 l=0.5
X128 VSS m1_2204_8288# m1_2204_8288# VSS sky130_fd_pr__nfet_01v8 ad=0.0588 pd=0.7 as=0.0588 ps=0.7 w=0.42 l=0.5
X129 m1_2204_8288# m1_2204_8288# VSS VSS sky130_fd_pr__nfet_01v8 ad=0.0588 pd=0.7 as=0.0588 ps=0.7 w=0.42 l=0.5
X130 VSS m1_2204_8288# m1_2204_8288# VSS sky130_fd_pr__nfet_01v8 ad=0.111 pd=1.37 as=0.0588 ps=0.7 w=0.42 l=0.5
X131 VSS m1_2204_8288# m1_2204_8288# VSS sky130_fd_pr__nfet_01v8 ad=0.0588 pd=0.7 as=0.0588 ps=0.7 w=0.42 l=0.5
X132 m1_2204_8288# m1_2204_8288# VSS VSS sky130_fd_pr__nfet_01v8 ad=0.0588 pd=0.7 as=0.0588 ps=0.7 w=0.42 l=0.5
X133 VSS m1_2204_8288# m1_2204_8288# VSS sky130_fd_pr__nfet_01v8 ad=0.0588 pd=0.7 as=0.0588 ps=0.7 w=0.42 l=0.5
X134 m1_2204_8288# m1_2204_8288# VSS VSS sky130_fd_pr__nfet_01v8 ad=0.0588 pd=0.7 as=0.0588 ps=0.7 w=0.42 l=0.5
X135 m1_2204_8288# m1_2204_8288# VSS VSS sky130_fd_pr__nfet_01v8 ad=0.0588 pd=0.7 as=0.0588 ps=0.7 w=0.42 l=0.5
X136 VSS m1_2204_8288# m1_2204_8288# VSS sky130_fd_pr__nfet_01v8 ad=0.0588 pd=0.7 as=0.0588 ps=0.7 w=0.42 l=0.5
X137 m1_2204_8288# m1_2204_8288# VSS VSS sky130_fd_pr__nfet_01v8 ad=0.0588 pd=0.7 as=0.0588 ps=0.7 w=0.42 l=0.5
X138 VSS m1_2204_8288# m1_2204_8288# VSS sky130_fd_pr__nfet_01v8 ad=0.0588 pd=0.7 as=0.0588 ps=0.7 w=0.42 l=0.5
X139 m1_2204_8288# m1_2204_8288# VSS VSS sky130_fd_pr__nfet_01v8 ad=0.0588 pd=0.7 as=0.0588 ps=0.7 w=0.42 l=0.5
X140 VSS m1_2204_8288# m1_2204_8288# VSS sky130_fd_pr__nfet_01v8 ad=0.0588 pd=0.7 as=0.0588 ps=0.7 w=0.42 l=0.5
X141 VSS m1_2204_8288# m1_2204_8288# VSS sky130_fd_pr__nfet_01v8 ad=0.0588 pd=0.7 as=0.0588 ps=0.7 w=0.42 l=0.5
X142 VSS m1_2204_8288# m1_2204_8288# VSS sky130_fd_pr__nfet_01v8 ad=0.0588 pd=0.7 as=0.0588 ps=0.7 w=0.42 l=0.5
X143 VSS m1_2204_8288# m1_2204_8288# VSS sky130_fd_pr__nfet_01v8 ad=0.0588 pd=0.7 as=0.0588 ps=0.7 w=0.42 l=0.5
X144 VSS m1_2204_8288# m1_2204_8288# VSS sky130_fd_pr__nfet_01v8 ad=0.0588 pd=0.7 as=0.0588 ps=0.7 w=0.42 l=0.5
X145 m1_2204_8288# m1_2204_8288# VSS VSS sky130_fd_pr__nfet_01v8 ad=0.0588 pd=0.7 as=0.0588 ps=0.7 w=0.42 l=0.5
X146 m1_2204_8288# m1_2204_8288# VSS VSS sky130_fd_pr__nfet_01v8 ad=0.0588 pd=0.7 as=0.0588 ps=0.7 w=0.42 l=0.5
X147 VSS m1_2204_8288# m1_2204_8288# VSS sky130_fd_pr__nfet_01v8 ad=0.0588 pd=0.7 as=0.0588 ps=0.7 w=0.42 l=0.5
X148 m1_2204_8288# m1_2204_8288# VSS VSS sky130_fd_pr__nfet_01v8 ad=0.0588 pd=0.7 as=0.0588 ps=0.7 w=0.42 l=0.5
X149 m1_2204_8288# m1_2204_8288# VSS VSS sky130_fd_pr__nfet_01v8 ad=0.0588 pd=0.7 as=0.111 ps=1.37 w=0.42 l=0.5
X150 m1_2204_8288# m1_2204_8288# VSS VSS sky130_fd_pr__nfet_01v8 ad=0.0588 pd=0.7 as=0.0588 ps=0.7 w=0.42 l=0.5
X151 VSS m1_2204_8288# m1_2204_8288# VSS sky130_fd_pr__nfet_01v8 ad=0.0588 pd=0.7 as=0.0588 ps=0.7 w=0.42 l=0.5
X152 VSS m1_2204_8288# m1_2204_8288# VSS sky130_fd_pr__nfet_01v8 ad=0.0588 pd=0.7 as=0.0588 ps=0.7 w=0.42 l=0.5
X153 VSS m1_2204_8288# m1_2204_8288# VSS sky130_fd_pr__nfet_01v8 ad=0.0588 pd=0.7 as=0.0588 ps=0.7 w=0.42 l=0.5
X154 VSS m1_2204_8288# m1_2204_8288# VSS sky130_fd_pr__nfet_01v8 ad=0.0588 pd=0.7 as=0.0588 ps=0.7 w=0.42 l=0.5
X155 VSS m1_2204_8288# m1_2204_8288# VSS sky130_fd_pr__nfet_01v8 ad=0.0588 pd=0.7 as=0.0588 ps=0.7 w=0.42 l=0.5
X156 VSS m1_2204_8288# m1_2204_8288# VSS sky130_fd_pr__nfet_01v8 ad=0.0588 pd=0.7 as=0.0588 ps=0.7 w=0.42 l=0.5
X157 m1_2204_8288# m1_2204_8288# VSS VSS sky130_fd_pr__nfet_01v8 ad=0.0588 pd=0.7 as=0.0588 ps=0.7 w=0.42 l=0.5
X158 m1_2204_8288# m1_2204_8288# VSS VSS sky130_fd_pr__nfet_01v8 ad=0.0588 pd=0.7 as=0.0588 ps=0.7 w=0.42 l=0.5
X159 m1_2204_8288# m1_2204_8288# VSS VSS sky130_fd_pr__nfet_01v8 ad=0.0588 pd=0.7 as=0.0588 ps=0.7 w=0.42 l=0.5
X160 VSS m1_2204_8288# m1_2204_8288# VSS sky130_fd_pr__nfet_01v8 ad=0.111 pd=1.37 as=0.0588 ps=0.7 w=0.42 l=0.5
X161 m1_2204_8288# m1_2204_8288# VSS VSS sky130_fd_pr__nfet_01v8 ad=0.0588 pd=0.7 as=0.0588 ps=0.7 w=0.42 l=0.5
X162 m1_2204_8288# m1_2204_8288# VSS VSS sky130_fd_pr__nfet_01v8 ad=0.0588 pd=0.7 as=0.0588 ps=0.7 w=0.42 l=0.5
X163 m1_2204_8288# m1_2204_8288# VSS VSS sky130_fd_pr__nfet_01v8 ad=0.0588 pd=0.7 as=0.0588 ps=0.7 w=0.42 l=0.5
X164 m1_2204_8288# m1_2204_8288# VSS VSS sky130_fd_pr__nfet_01v8 ad=0.0588 pd=0.7 as=0.0588 ps=0.7 w=0.42 l=0.5
X165 VSS m1_2204_8288# m1_2204_8288# VSS sky130_fd_pr__nfet_01v8 ad=0.0588 pd=0.7 as=0.0588 ps=0.7 w=0.42 l=0.5
X166 VSS m1_2204_8288# m1_2204_8288# VSS sky130_fd_pr__nfet_01v8 ad=0.0588 pd=0.7 as=0.0588 ps=0.7 w=0.42 l=0.5
X167 VSS m1_2204_8288# m1_2204_8288# VSS sky130_fd_pr__nfet_01v8 ad=0.0588 pd=0.7 as=0.0588 ps=0.7 w=0.42 l=0.5
X168 VSS m1_2204_8288# m1_2204_8288# VSS sky130_fd_pr__nfet_01v8 ad=0.0588 pd=0.7 as=0.0588 ps=0.7 w=0.42 l=0.5
X169 VSS m1_2204_8288# m1_2204_8288# VSS sky130_fd_pr__nfet_01v8 ad=0.0588 pd=0.7 as=0.0588 ps=0.7 w=0.42 l=0.5
X170 VSS m1_2204_8288# m1_2204_8288# VSS sky130_fd_pr__nfet_01v8 ad=0.0588 pd=0.7 as=0.0588 ps=0.7 w=0.42 l=0.5
X171 m1_2204_8288# m1_2204_8288# VSS VSS sky130_fd_pr__nfet_01v8 ad=0.0588 pd=0.7 as=0.0588 ps=0.7 w=0.42 l=0.5
X172 m1_2204_8288# m1_2204_8288# VSS VSS sky130_fd_pr__nfet_01v8 ad=0.0588 pd=0.7 as=0.0588 ps=0.7 w=0.42 l=0.5
X173 m1_2204_8288# m1_2204_8288# VSS VSS sky130_fd_pr__nfet_01v8 ad=0.0588 pd=0.7 as=0.0588 ps=0.7 w=0.42 l=0.5
X174 m1_2204_8288# m1_2204_8288# VSS VSS sky130_fd_pr__nfet_01v8 ad=0.0588 pd=0.7 as=0.0588 ps=0.7 w=0.42 l=0.5
X175 m1_2204_8288# m1_2204_8288# VSS VSS sky130_fd_pr__nfet_01v8 ad=0.0588 pd=0.7 as=0.0588 ps=0.7 w=0.42 l=0.5
X176 VSS m1_2204_8288# m1_2204_8288# VSS sky130_fd_pr__nfet_01v8 ad=0.0588 pd=0.7 as=0.0588 ps=0.7 w=0.42 l=0.5
X177 VSS m1_2204_8288# m1_2204_8288# VSS sky130_fd_pr__nfet_01v8 ad=0.0588 pd=0.7 as=0.0588 ps=0.7 w=0.42 l=0.5
X178 VSS m1_2204_8288# m1_2204_8288# VSS sky130_fd_pr__nfet_01v8 ad=0.0588 pd=0.7 as=0.0588 ps=0.7 w=0.42 l=0.5
X179 m1_2204_8288# m1_2204_8288# VSS VSS sky130_fd_pr__nfet_01v8 ad=0.0588 pd=0.7 as=0.0588 ps=0.7 w=0.42 l=0.5
X180 m1_2204_8288# m1_2204_8288# VSS VSS sky130_fd_pr__nfet_01v8 ad=0.0588 pd=0.7 as=0.0588 ps=0.7 w=0.42 l=0.5
X181 VSS m1_2204_8288# m1_2204_8288# VSS sky130_fd_pr__nfet_01v8 ad=0.0588 pd=0.7 as=0.0588 ps=0.7 w=0.42 l=0.5
X182 VSS m1_2204_8288# m1_2204_8288# VSS sky130_fd_pr__nfet_01v8 ad=0.0588 pd=0.7 as=0.0588 ps=0.7 w=0.42 l=0.5
X183 m1_2204_8288# m1_2204_8288# VSS VSS sky130_fd_pr__nfet_01v8 ad=0.0588 pd=0.7 as=0.0588 ps=0.7 w=0.42 l=0.5
X184 m1_2204_8288# m1_2204_8288# VSS VSS sky130_fd_pr__nfet_01v8 ad=0.0588 pd=0.7 as=0.0588 ps=0.7 w=0.42 l=0.5
X185 VSS m1_2204_8288# m1_2204_8288# VSS sky130_fd_pr__nfet_01v8 ad=0.0588 pd=0.7 as=0.0588 ps=0.7 w=0.42 l=0.5
X186 VSS m1_2204_8288# m1_2204_8288# VSS sky130_fd_pr__nfet_01v8 ad=0.0588 pd=0.7 as=0.0588 ps=0.7 w=0.42 l=0.5
X187 VSS m1_2204_8288# m1_2204_8288# VSS sky130_fd_pr__nfet_01v8 ad=0.0588 pd=0.7 as=0.0588 ps=0.7 w=0.42 l=0.5
X188 VSS m1_2204_8288# m1_2204_8288# VSS sky130_fd_pr__nfet_01v8 ad=0.0588 pd=0.7 as=0.0588 ps=0.7 w=0.42 l=0.5
X189 VSS m1_2204_8288# m1_2204_8288# VSS sky130_fd_pr__nfet_01v8 ad=0.0588 pd=0.7 as=0.0588 ps=0.7 w=0.42 l=0.5
X190 m1_2204_8288# m1_2204_8288# VSS VSS sky130_fd_pr__nfet_01v8 ad=0.0588 pd=0.7 as=0.0588 ps=0.7 w=0.42 l=0.5
X191 m1_2204_8288# m1_2204_8288# VSS VSS sky130_fd_pr__nfet_01v8 ad=0.0588 pd=0.7 as=0.0588 ps=0.7 w=0.42 l=0.5
X192 m1_2204_8288# m1_2204_8288# VSS VSS sky130_fd_pr__nfet_01v8 ad=0.0588 pd=0.7 as=0.0588 ps=0.7 w=0.42 l=0.5
X193 m1_2204_8288# m1_2204_8288# VSS VSS sky130_fd_pr__nfet_01v8 ad=0.0588 pd=0.7 as=0.0588 ps=0.7 w=0.42 l=0.5
X194 VSS m1_2204_8288# m1_2204_8288# VSS sky130_fd_pr__nfet_01v8 ad=0.0588 pd=0.7 as=0.0588 ps=0.7 w=0.42 l=0.5
X195 VSS m1_2204_8288# m1_2204_8288# VSS sky130_fd_pr__nfet_01v8 ad=0.0588 pd=0.7 as=0.0588 ps=0.7 w=0.42 l=0.5
X196 VSS m1_2204_8288# m1_2204_8288# VSS sky130_fd_pr__nfet_01v8 ad=0.0588 pd=0.7 as=0.0588 ps=0.7 w=0.42 l=0.5
X197 m1_2204_8288# m1_2204_8288# VSS VSS sky130_fd_pr__nfet_01v8 ad=0.0588 pd=0.7 as=0.0588 ps=0.7 w=0.42 l=0.5
X198 m1_2204_8288# m1_2204_8288# VSS VSS sky130_fd_pr__nfet_01v8 ad=0.0588 pd=0.7 as=0.0588 ps=0.7 w=0.42 l=0.5
X199 m1_2204_8288# m1_2204_8288# VSS VSS sky130_fd_pr__nfet_01v8 ad=0.0588 pd=0.7 as=0.0588 ps=0.7 w=0.42 l=0.5
X200 m1_2204_8288# m1_2204_8288# VSS VSS sky130_fd_pr__nfet_01v8 ad=0.0588 pd=0.7 as=0.0588 ps=0.7 w=0.42 l=0.5
X201 VSS m1_2204_8288# m1_2204_8288# VSS sky130_fd_pr__nfet_01v8 ad=0.0588 pd=0.7 as=0.0588 ps=0.7 w=0.42 l=0.5
X202 m1_2204_8288# m1_2204_8288# VSS VSS sky130_fd_pr__nfet_01v8 ad=0.0588 pd=0.7 as=0.0588 ps=0.7 w=0.42 l=0.5
X203 m1_2204_8288# m1_2204_8288# VSS VSS sky130_fd_pr__nfet_01v8 ad=0.0588 pd=0.7 as=0.0588 ps=0.7 w=0.42 l=0.5
X204 VSS m1_2204_8288# m1_2204_8288# VSS sky130_fd_pr__nfet_01v8 ad=0.0588 pd=0.7 as=0.0588 ps=0.7 w=0.42 l=0.5
X205 VSS m1_2204_8288# m1_2204_8288# VSS sky130_fd_pr__nfet_01v8 ad=0.0588 pd=0.7 as=0.0588 ps=0.7 w=0.42 l=0.5
X206 m1_2204_8288# m1_2204_8288# VSS VSS sky130_fd_pr__nfet_01v8 ad=0.0588 pd=0.7 as=0.0588 ps=0.7 w=0.42 l=0.5
X207 m1_2204_8288# m1_2204_8288# VSS VSS sky130_fd_pr__nfet_01v8 ad=0.0588 pd=0.7 as=0.0588 ps=0.7 w=0.42 l=0.5
X208 VSS m1_2204_8288# m1_2204_8288# VSS sky130_fd_pr__nfet_01v8 ad=0.0588 pd=0.7 as=0.0588 ps=0.7 w=0.42 l=0.5
X209 VSS m1_2204_8288# m1_2204_8288# VSS sky130_fd_pr__nfet_01v8 ad=0.0588 pd=0.7 as=0.0588 ps=0.7 w=0.42 l=0.5
X210 VSS m1_2204_8288# m1_2204_8288# VSS sky130_fd_pr__nfet_01v8 ad=0.0588 pd=0.7 as=0.0588 ps=0.7 w=0.42 l=0.5
X211 m1_2204_8288# m1_2204_8288# VSS VSS sky130_fd_pr__nfet_01v8 ad=0.0588 pd=0.7 as=0.0588 ps=0.7 w=0.42 l=0.5
X212 m1_2204_8288# m1_2204_8288# VSS VSS sky130_fd_pr__nfet_01v8 ad=0.0588 pd=0.7 as=0.0588 ps=0.7 w=0.42 l=0.5
X213 m1_2204_8288# m1_2204_8288# VSS VSS sky130_fd_pr__nfet_01v8 ad=0.0588 pd=0.7 as=0.0588 ps=0.7 w=0.42 l=0.5
X214 m1_2204_8288# m1_2204_8288# VSS VSS sky130_fd_pr__nfet_01v8 ad=0.0588 pd=0.7 as=0.111 ps=1.37 w=0.42 l=0.5
X215 m1_2204_8288# m1_2204_8288# VSS VSS sky130_fd_pr__nfet_01v8 ad=0.0588 pd=0.7 as=0.111 ps=1.37 w=0.42 l=0.5
X216 VSS m1_2204_8288# m1_2204_8288# VSS sky130_fd_pr__nfet_01v8 ad=0.0588 pd=0.7 as=0.0588 ps=0.7 w=0.42 l=0.5
X217 VSS m1_2204_8288# m1_2204_8288# VSS sky130_fd_pr__nfet_01v8 ad=0.0588 pd=0.7 as=0.0588 ps=0.7 w=0.42 l=0.5
X218 VSS m1_2204_8288# m1_2204_8288# VSS sky130_fd_pr__nfet_01v8 ad=0.0588 pd=0.7 as=0.0588 ps=0.7 w=0.42 l=0.5
X219 VSS m1_2204_8288# m1_2204_8288# VSS sky130_fd_pr__nfet_01v8 ad=0.0588 pd=0.7 as=0.0588 ps=0.7 w=0.42 l=0.5
X220 VSS m1_2204_8288# m1_2204_8288# VSS sky130_fd_pr__nfet_01v8 ad=0.111 pd=1.37 as=0.0588 ps=0.7 w=0.42 l=0.5
X221 m1_2204_8288# m1_2204_8288# VSS VSS sky130_fd_pr__nfet_01v8 ad=0.0588 pd=0.7 as=0.0588 ps=0.7 w=0.42 l=0.5
X222 VSS m1_2204_8288# m1_2204_8288# VSS sky130_fd_pr__nfet_01v8 ad=0.0588 pd=0.7 as=0.0588 ps=0.7 w=0.42 l=0.5
X223 m1_2204_8288# m1_2204_8288# VSS VSS sky130_fd_pr__nfet_01v8 ad=0.0588 pd=0.7 as=0.0588 ps=0.7 w=0.42 l=0.5
X224 m1_2204_8288# m1_2204_8288# VSS VSS sky130_fd_pr__nfet_01v8 ad=0.0588 pd=0.7 as=0.0588 ps=0.7 w=0.42 l=0.5
X225 VSS m1_2204_8288# m1_2204_8288# VSS sky130_fd_pr__nfet_01v8 ad=0.0588 pd=0.7 as=0.0588 ps=0.7 w=0.42 l=0.5
X226 m1_2204_8288# m1_2204_8288# VSS VSS sky130_fd_pr__nfet_01v8 ad=0.0588 pd=0.7 as=0.0588 ps=0.7 w=0.42 l=0.5
X227 VSS m1_2204_8288# m1_2204_8288# VSS sky130_fd_pr__nfet_01v8 ad=0.0588 pd=0.7 as=0.0588 ps=0.7 w=0.42 l=0.5
X228 VSS m1_2204_8288# m1_2204_8288# VSS sky130_fd_pr__nfet_01v8 ad=0.0588 pd=0.7 as=0.0588 ps=0.7 w=0.42 l=0.5
X229 VSS m1_2204_8288# m1_2204_8288# VSS sky130_fd_pr__nfet_01v8 ad=0.0588 pd=0.7 as=0.0588 ps=0.7 w=0.42 l=0.5
X230 VSS m1_2204_8288# m1_2204_8288# VSS sky130_fd_pr__nfet_01v8 ad=0.0588 pd=0.7 as=0.0588 ps=0.7 w=0.42 l=0.5
X231 VSS m1_2204_8288# m1_2204_8288# VSS sky130_fd_pr__nfet_01v8 ad=0.0588 pd=0.7 as=0.0588 ps=0.7 w=0.42 l=0.5
X232 VSS m1_2204_8288# m1_2204_8288# VSS sky130_fd_pr__nfet_01v8 ad=0.0588 pd=0.7 as=0.0588 ps=0.7 w=0.42 l=0.5
X233 m1_2204_8288# m1_2204_8288# VSS VSS sky130_fd_pr__nfet_01v8 ad=0.0588 pd=0.7 as=0.0588 ps=0.7 w=0.42 l=0.5
X234 m1_2204_8288# m1_2204_8288# VSS VSS sky130_fd_pr__nfet_01v8 ad=0.0588 pd=0.7 as=0.0588 ps=0.7 w=0.42 l=0.5
X235 m1_2204_8288# m1_2204_8288# VSS VSS sky130_fd_pr__nfet_01v8 ad=0.0588 pd=0.7 as=0.0588 ps=0.7 w=0.42 l=0.5
X236 m1_2204_8288# m1_2204_8288# VSS VSS sky130_fd_pr__nfet_01v8 ad=0.0588 pd=0.7 as=0.0588 ps=0.7 w=0.42 l=0.5
X237 m1_2204_8288# m1_2204_8288# VSS VSS sky130_fd_pr__nfet_01v8 ad=0.0588 pd=0.7 as=0.0588 ps=0.7 w=0.42 l=0.5
X238 m1_2204_8288# m1_2204_8288# VSS VSS sky130_fd_pr__nfet_01v8 ad=0.0588 pd=0.7 as=0.0588 ps=0.7 w=0.42 l=0.5
X239 m1_2204_8288# m1_2204_8288# VSS VSS sky130_fd_pr__nfet_01v8 ad=0.0588 pd=0.7 as=0.0588 ps=0.7 w=0.42 l=0.5
X240 VSS m1_2204_8288# m1_2204_8288# VSS sky130_fd_pr__nfet_01v8 ad=0.0588 pd=0.7 as=0.0588 ps=0.7 w=0.42 l=0.5
X241 VSS m1_2204_8288# m1_2204_8288# VSS sky130_fd_pr__nfet_01v8 ad=0.0588 pd=0.7 as=0.0588 ps=0.7 w=0.42 l=0.5
X242 VSS m1_2204_8288# m1_2204_8288# VSS sky130_fd_pr__nfet_01v8 ad=0.0588 pd=0.7 as=0.0588 ps=0.7 w=0.42 l=0.5
X243 VSS m1_2204_8288# m1_2204_8288# VSS sky130_fd_pr__nfet_01v8 ad=0.0588 pd=0.7 as=0.0588 ps=0.7 w=0.42 l=0.5
X244 m1_2204_8288# m1_2204_8288# VSS VSS sky130_fd_pr__nfet_01v8 ad=0.0588 pd=0.7 as=0.0588 ps=0.7 w=0.42 l=0.5
X245 m1_2204_8288# m1_2204_8288# VSS VSS sky130_fd_pr__nfet_01v8 ad=0.0588 pd=0.7 as=0.0588 ps=0.7 w=0.42 l=0.5
X246 m1_2204_8288# m1_2204_8288# VSS VSS sky130_fd_pr__nfet_01v8 ad=0.0588 pd=0.7 as=0.0588 ps=0.7 w=0.42 l=0.5
X247 VSS m1_2204_8288# m1_2204_8288# VSS sky130_fd_pr__nfet_01v8 ad=0.0588 pd=0.7 as=0.0588 ps=0.7 w=0.42 l=0.5
X248 VSS ID m1_5730_4004# VSS sky130_fd_pr__nfet_01v8 ad=0.0588 pd=0.7 as=0.0588 ps=0.7 w=0.42 l=0.5
X249 m1_5730_4004# ID VSS VSS sky130_fd_pr__nfet_01v8 ad=0.0588 pd=0.7 as=0.0588 ps=0.7 w=0.42 l=0.5
X250 m1_5730_4004# ID VSS VSS sky130_fd_pr__nfet_01v8 ad=0.0588 pd=0.7 as=0.0588 ps=0.7 w=0.42 l=0.5
X251 m1_5730_4004# ID VSS VSS sky130_fd_pr__nfet_01v8 ad=0.0588 pd=0.7 as=0.0588 ps=0.7 w=0.42 l=0.5
X252 VSS ID m1_5730_4004# VSS sky130_fd_pr__nfet_01v8 ad=0.0588 pd=0.7 as=0.0588 ps=0.7 w=0.42 l=0.5
X253 VSS ID m1_5730_4004# VSS sky130_fd_pr__nfet_01v8 ad=0.0588 pd=0.7 as=0.0588 ps=0.7 w=0.42 l=0.5
X254 m1_5730_4004# ID VSS VSS sky130_fd_pr__nfet_01v8 ad=0.0588 pd=0.7 as=0.0588 ps=0.7 w=0.42 l=0.5
X255 VSS ID m1_5730_4004# VSS sky130_fd_pr__nfet_01v8 ad=0.0588 pd=0.7 as=0.0588 ps=0.7 w=0.42 l=0.5
X256 m1_5730_4004# ID VSS VSS sky130_fd_pr__nfet_01v8 ad=0.0588 pd=0.7 as=0.0588 ps=0.7 w=0.42 l=0.5
X257 VSS ID m1_5730_4004# VSS sky130_fd_pr__nfet_01v8 ad=0.0588 pd=0.7 as=0.0588 ps=0.7 w=0.42 l=0.5
X258 m1_5730_4004# ID VSS VSS sky130_fd_pr__nfet_01v8 ad=0.0588 pd=0.7 as=0.0588 ps=0.7 w=0.42 l=0.5
X259 VSS ID m1_5730_4004# VSS sky130_fd_pr__nfet_01v8 ad=0.0588 pd=0.7 as=0.0588 ps=0.7 w=0.42 l=0.5
X260 m1_5730_4004# ID VSS VSS sky130_fd_pr__nfet_01v8 ad=0.0588 pd=0.7 as=0.111 ps=1.37 w=0.42 l=0.5
X261 VSS ID m1_5730_4004# VSS sky130_fd_pr__nfet_01v8 ad=0.0588 pd=0.7 as=0.0588 ps=0.7 w=0.42 l=0.5
X262 VSS ID m1_5730_4004# VSS sky130_fd_pr__nfet_01v8 ad=0.0588 pd=0.7 as=0.0588 ps=0.7 w=0.42 l=0.5
X263 m1_5730_4004# ID VSS VSS sky130_fd_pr__nfet_01v8 ad=0.0588 pd=0.7 as=0.0588 ps=0.7 w=0.42 l=0.5
X264 m1_5730_4004# ID VSS VSS sky130_fd_pr__nfet_01v8 ad=0.0588 pd=0.7 as=0.0588 ps=0.7 w=0.42 l=0.5
X265 m1_5730_4004# ID VSS VSS sky130_fd_pr__nfet_01v8 ad=0.0588 pd=0.7 as=0.0588 ps=0.7 w=0.42 l=0.5
X266 m1_5730_4004# ID VSS VSS sky130_fd_pr__nfet_01v8 ad=0.0588 pd=0.7 as=0.0588 ps=0.7 w=0.42 l=0.5
X267 VSS ID m1_5730_4004# VSS sky130_fd_pr__nfet_01v8 ad=0.0588 pd=0.7 as=0.0588 ps=0.7 w=0.42 l=0.5
X268 VSS ID m1_5730_4004# VSS sky130_fd_pr__nfet_01v8 ad=0.0588 pd=0.7 as=0.0588 ps=0.7 w=0.42 l=0.5
X269 m1_5730_4004# ID VSS VSS sky130_fd_pr__nfet_01v8 ad=0.0588 pd=0.7 as=0.0588 ps=0.7 w=0.42 l=0.5
X270 VSS ID m1_5730_4004# VSS sky130_fd_pr__nfet_01v8 ad=0.0588 pd=0.7 as=0.0588 ps=0.7 w=0.42 l=0.5
X271 m1_5730_4004# ID VSS VSS sky130_fd_pr__nfet_01v8 ad=0.0588 pd=0.7 as=0.0588 ps=0.7 w=0.42 l=0.5
X272 VSS ID m1_5730_4004# VSS sky130_fd_pr__nfet_01v8 ad=0.0588 pd=0.7 as=0.0588 ps=0.7 w=0.42 l=0.5